version 3
run TCP_Congestion_1Mbps-0-20260412-17:55:13-14681
attr configname TCP_Congestion_1Mbps
attr datetime 20260412-17:55:13
attr datetimef 20260412-175513
attr experiment TCP_Congestion_1Mbps
attr inifile omnetpp.ini
attr iterationvars ""
attr iterationvarsd ""
attr iterationvarsf ""
attr measurement ""
attr network src.BasicNetwork
attr processid 14681
attr repetition 0
attr replication #0
attr resultdir results
attr runnumber 0
attr seedset 0
config image-path ../inet/images
config extends Part_II_Base
config description "TCP Congestion: Bottleneck reduced to 1 Mbps (severe congestion)"
config **.tcp.cwnd:vector true
config **.tcp.rtt:vector true
config **.tcp.sndNxt:vector true
config **.tcp.sndUna:vector true
config **.r2.eth[2].datarate 1Mbps
config description "Part II Foundation: TCP/UDP apps for transport protocol testing"
config extends RIPng
config *.client1.numApps 1
config *.client1.app[0].typename TcpSessionApp
config *.client1.app[0].connectAddress "\"server1\""
config *.client1.app[0].connectPort 1000
config *.client1.app[0].tOpen 1s
config *.client1.app[0].tSend 2s
config *.client1.app[0].tClose 90s
config *.client1.app[0].sendBytes 10MB
config *.server1.numApps 1
config *.server1.app[0].typename TcpSinkApp
config *.server1.app[0].localPort 1000
config *.client2.numApps 1
config *.client2.app[0].typename UdpBasicApp
config *.client2.app[0].destAddresses "\"server2\""
config *.client2.app[0].destPort 2000
config *.client2.app[0].messageLength 1000B
config *.client2.app[0].sendInterval 0.01s
config *.server2.numApps 1
config *.server2.app[0].typename UdpSink
config *.server2.app[0].localPort 2000
config **.tcp.cwnd:vector true
config **.tcp.rtt:vector true
config description "Dynamic routing with RIPng (Distance-Vector, IPv6)"
config *.configurator.addStaticRoutes false
config *.configurator.addDefaultRoutes false
config **.r[*].hasRip true
config **.r[*].rip.mode "\"RIPng\""
config **.r[*].rip.updateInterval 30s
config **.r[*].rip.routeExpiryTime 180s
config **.r[*].rip.routePurgeTime 120s
config network src.BasicNetwork
config sim-time-limit 100s
config seed-set 0
config output-scalar-file results/TCP_Congestion_1Mbps-0.sca
config output-vector-file results/TCP_Congestion_1Mbps-0.vec
config **.eth[*].queue.queueLength:vector true
config **.udpApp[*].rcvdPk:vector true
config *.configurator.addStaticRoutes true
config *.configurator.addDefaultRoutes true
config *.configurator.addSubnetRoutes true
config **.hasIpv6 true
config **.hasIpv4 false
config **.tcp.typename Tcp
config **.tcp.tcpAlgorithmClass "\"TcpReno\""

vector 0 BasicNetwork.r1.ethernet encapPk:vector(packetBytes) ETV
attr interpolationmode none
attr recordingmode vector(packetBytes)
attr source encapPk
attr title "packets encapsulated, packetBytes"
vector 1 BasicNetwork.r1.ethernet decapPk:vector(packetBytes) ETV
attr interpolationmode none
attr recordingmode vector(packetBytes)
attr source decapPk
attr title "packets decapsulated, packetBytes"
vector 2 BasicNetwork.r1.ethernet pauseSent:vector ETV
attr recordingmode vector
attr title "pause sent"
vector 3 BasicNetwork.r1.lo[0].lo rcvdPkFromHl:vector(packetBytes) ETV
attr interpolationmode none
attr recordingmode vector(packetBytes)
attr source packetReceivedFromUpper
attr title "packets received from higher layer, packetBytes"
vector 4 BasicNetwork.r1.lo[0].lo passedUpPk:vector(packetBytes) ETV
attr interpolationmode none
attr recordingmode vector(packetBytes)
attr source packetSentToUpper
attr title "packets passed to higher layer, packetBytes"
vector 5 BasicNetwork.r1.lo[0] packetDropInterfaceDown:vector(packetBytes) ETV
attr interpolationmode none
attr recordingmode vector(packetBytes)
attr source packetDropReasonIsInterfaceDown(packetDropped)
attr title "packet drops: interface down, packetBytes"
vector 6 BasicNetwork.r1.lo[0] packetDropNoCarrier:vector(packetBytes) ETV
attr interpolationmode none
attr recordingmode vector(packetBytes)
attr source packetDropReasonIsNoCarrier(packetDropped)
attr title "packet drops: no carrier, packetBytes"
vector 7 BasicNetwork.r1.eth[0].queue queueLength:vector ETV
attr autoWarmupFilter false
attr interpolationmode sample-hold
attr recordingmode vector
attr source "warmup(atomic(constant0(packetPushEnded) + count(packetPushStarted) - count(packetPulled) - count(packetRemoved) - count(packetDropped)))"
attr title "queue length"
attr unit pk
vector 8 BasicNetwork.r1.eth[0].queue queueBitLength:vector ETV
attr autoWarmupFilter false
attr interpolationmode sample-hold
attr recordingmode vector
attr source "warmup(atomic(constant0(packetPushEnded) + sum(packetLength(packetPushStarted)) - sum(packetLength(packetPulled)) - sum(packetLength(packetRemoved)) - sum(packetLength(packetDropped))))"
attr title "queue bit length"
attr unit b
vector 9 BasicNetwork.r1.eth[0].queue queueingTime:vector ETV
attr interpolationmode none
attr recordingmode vector
attr source queueingTime(packetPulled)
attr title "queueing times"
attr unit s
vector 10 BasicNetwork.r1.eth[0].queue incomingPacketLengths:vector ETV
attr interpolationmode none
attr recordingmode vector
attr source packetLength(packetPushStarted)
attr title "incoming packet lengths"
attr unit b
vector 11 BasicNetwork.r1.eth[0].queue incomingDataRate:vector ETV
attr interpolationmode linear
attr recordingmode vector
attr source throughput(packetPushStarted)
attr title "incoming datarate"
attr unit bps
vector 12 BasicNetwork.r1.eth[0].queue outgoingPacketLengths:vector ETV
attr interpolationmode none
attr recordingmode vector
attr source packetLength(packetPulled)
attr title "outgoing packet lengths"
attr unit b
vector 13 BasicNetwork.r1.eth[0].queue outgoingDataRate:vector ETV
attr interpolationmode linear
attr recordingmode vector
attr source throughput(packetPulled)
attr title "outgoing datarate"
attr unit bps
vector 14 BasicNetwork.r1.eth[0].queue droppedPacketLengthsQueueOverflow:vector ETV
attr interpolationmode none
attr recordingmode vector
attr source packetLength(packetDropReasonIsQueueOverflow(packetDropped))
attr title "dropped packet lengths: queue overflow"
attr unit b
vector 15 BasicNetwork.r1.eth[0].queue flowQueueingTime:vector ETV
attr interpolationmode none
attr recordingmode vector
attr source queueingTime(demuxFlow(packetPulled))
attr title "flow queueing times"
attr unit s
vector 16 BasicNetwork.r1.eth[0].queue flowIncomingDataRate:vector ETV
attr interpolationmode linear
attr recordingmode vector
attr source throughput(flowPacketLength(demuxFlow(packetPushStarted)))
attr title "flow specific incoming data rate"
attr unit bps
vector 17 BasicNetwork.r1.eth[0].queue flowOutgoingDataRate:vector ETV
attr interpolationmode linear
attr recordingmode vector
attr source throughput(flowPacketLength(demuxFlow(packetPulled)))
attr title "flow specific outgoing data rate"
attr unit bps
vector 18 BasicNetwork.r1.eth[0].mac transmitting:vector ETV
attr interpolationmode sample-hold
attr recordingmode vector
attr source "count(transmissionStarted) - count(transmissionEnded)"
attr title "transmitting state"
attr type int
vector 19 BasicNetwork.r1.eth[0].mac throughput:vector ETV
attr interpolationmode linear
attr recordingmode vector
attr source throughput(transmissionEnded)
attr title throughput
attr unit bps
vector 20 BasicNetwork.r1.eth[0].mac utilization:vector ETV
attr interpolationmode linear
attr recordingmode vector
attr source "100 * utilization(count(transmissionStarted) - count(transmissionEnded))"
attr title utilization
attr unit %
vector 21 BasicNetwork.r1.eth[0].mac txPk:vector(packetBytes) ETV
attr interpolationmode none
attr recordingmode vector(packetBytes)
attr source packetSentToLower
attr title "packets transmitted, packetBytes"
vector 22 BasicNetwork.r1.eth[0].mac rxPkOk:vector(packetBytes) ETV
attr interpolationmode none
attr recordingmode vector(packetBytes)
attr source rxPkOk
attr title "packets received OK, packetBytes"
vector 23 BasicNetwork.r1.eth[0].mac passedUpPk:vector(packetBytes) ETV
attr interpolationmode none
attr recordingmode vector(packetBytes)
attr source packetSentToUpper
attr title "packets passed to higher layer, packetBytes"
vector 24 BasicNetwork.r1.eth[0].mac txPausePkUnits:vector ETV
attr interpolationmode none
attr recordingmode vector
attr title "pause units sent"
vector 25 BasicNetwork.r1.eth[0].mac rxPausePkUnits:vector ETV
attr interpolationmode none
attr recordingmode vector
attr title "pause units received"
vector 26 BasicNetwork.r1.eth[0].mac packetReceivedFromUpper:vector(packetBytes) ETV
attr interpolationmode none
attr recordingmode vector(packetBytes)
attr source packetReceivedFromUpper
attr title "packet bytes from higher layer, packetBytes"
vector 27 BasicNetwork.r1.eth[0].mac packetDropIncorrectlyReceived:vector(packetBytes) ETV
attr interpolationmode none
attr recordingmode vector(packetBytes)
attr source packetDropReasonIsIncorrectlyReceived(packetDropped)
attr title "packet drop: incorrectly received, packetBytes"
vector 28 BasicNetwork.r1.eth[0].mac packetDropInterfaceDown:vector(packetBytes) ETV
attr interpolationmode none
attr recordingmode vector(packetBytes)
attr source packetDropReasonIsInterfaceDown(packetDropped)
attr title "packet drop: interface down, packetBytes"
vector 29 BasicNetwork.r1.eth[0].mac packetDropNotAddressedToUs:vector(packetBytes) ETV
attr interpolationmode none
attr recordingmode vector(packetBytes)
attr source packetDropReasonIsNotAddressedToUs(packetDropped)
attr title "packet drop: not addressed to us, packetBytes"
vector 30 BasicNetwork.r1.eth[0] packetDropInterfaceDown:vector(packetBytes) ETV
attr interpolationmode none
attr recordingmode vector(packetBytes)
attr source packetDropReasonIsInterfaceDown(packetDropped)
attr title "packet drops: interface down, packetBytes"
vector 31 BasicNetwork.r1.eth[0] packetDropNoCarrier:vector(packetBytes) ETV
attr interpolationmode none
attr recordingmode vector(packetBytes)
attr source packetDropReasonIsNoCarrier(packetDropped)
attr title "packet drops: no carrier, packetBytes"
vector 32 BasicNetwork.r1.eth[1].queue queueLength:vector ETV
attr autoWarmupFilter false
attr interpolationmode sample-hold
attr recordingmode vector
attr source "warmup(atomic(constant0(packetPushEnded) + count(packetPushStarted) - count(packetPulled) - count(packetRemoved) - count(packetDropped)))"
attr title "queue length"
attr unit pk
vector 33 BasicNetwork.r1.eth[1].queue queueBitLength:vector ETV
attr autoWarmupFilter false
attr interpolationmode sample-hold
attr recordingmode vector
attr source "warmup(atomic(constant0(packetPushEnded) + sum(packetLength(packetPushStarted)) - sum(packetLength(packetPulled)) - sum(packetLength(packetRemoved)) - sum(packetLength(packetDropped))))"
attr title "queue bit length"
attr unit b
vector 34 BasicNetwork.r1.eth[1].queue queueingTime:vector ETV
attr interpolationmode none
attr recordingmode vector
attr source queueingTime(packetPulled)
attr title "queueing times"
attr unit s
vector 35 BasicNetwork.r1.eth[1].queue incomingPacketLengths:vector ETV
attr interpolationmode none
attr recordingmode vector
attr source packetLength(packetPushStarted)
attr title "incoming packet lengths"
attr unit b
vector 36 BasicNetwork.r1.eth[1].queue incomingDataRate:vector ETV
attr interpolationmode linear
attr recordingmode vector
attr source throughput(packetPushStarted)
attr title "incoming datarate"
attr unit bps
vector 37 BasicNetwork.r1.eth[1].queue outgoingPacketLengths:vector ETV
attr interpolationmode none
attr recordingmode vector
attr source packetLength(packetPulled)
attr title "outgoing packet lengths"
attr unit b
vector 38 BasicNetwork.r1.eth[1].queue outgoingDataRate:vector ETV
attr interpolationmode linear
attr recordingmode vector
attr source throughput(packetPulled)
attr title "outgoing datarate"
attr unit bps
vector 39 BasicNetwork.r1.eth[1].queue droppedPacketLengthsQueueOverflow:vector ETV
attr interpolationmode none
attr recordingmode vector
attr source packetLength(packetDropReasonIsQueueOverflow(packetDropped))
attr title "dropped packet lengths: queue overflow"
attr unit b
vector 40 BasicNetwork.r1.eth[1].queue flowQueueingTime:vector ETV
attr interpolationmode none
attr recordingmode vector
attr source queueingTime(demuxFlow(packetPulled))
attr title "flow queueing times"
attr unit s
vector 41 BasicNetwork.r1.eth[1].queue flowIncomingDataRate:vector ETV
attr interpolationmode linear
attr recordingmode vector
attr source throughput(flowPacketLength(demuxFlow(packetPushStarted)))
attr title "flow specific incoming data rate"
attr unit bps
vector 42 BasicNetwork.r1.eth[1].queue flowOutgoingDataRate:vector ETV
attr interpolationmode linear
attr recordingmode vector
attr source throughput(flowPacketLength(demuxFlow(packetPulled)))
attr title "flow specific outgoing data rate"
attr unit bps
vector 43 BasicNetwork.r1.eth[1].mac transmitting:vector ETV
attr interpolationmode sample-hold
attr recordingmode vector
attr source "count(transmissionStarted) - count(transmissionEnded)"
attr title "transmitting state"
attr type int
vector 44 BasicNetwork.r1.eth[1].mac throughput:vector ETV
attr interpolationmode linear
attr recordingmode vector
attr source throughput(transmissionEnded)
attr title throughput
attr unit bps
vector 45 BasicNetwork.r1.eth[1].mac utilization:vector ETV
attr interpolationmode linear
attr recordingmode vector
attr source "100 * utilization(count(transmissionStarted) - count(transmissionEnded))"
attr title utilization
attr unit %
vector 46 BasicNetwork.r1.eth[1].mac txPk:vector(packetBytes) ETV
attr interpolationmode none
attr recordingmode vector(packetBytes)
attr source packetSentToLower
attr title "packets transmitted, packetBytes"
vector 47 BasicNetwork.r1.eth[1].mac rxPkOk:vector(packetBytes) ETV
attr interpolationmode none
attr recordingmode vector(packetBytes)
attr source rxPkOk
attr title "packets received OK, packetBytes"
vector 48 BasicNetwork.r1.eth[1].mac passedUpPk:vector(packetBytes) ETV
attr interpolationmode none
attr recordingmode vector(packetBytes)
attr source packetSentToUpper
attr title "packets passed to higher layer, packetBytes"
vector 49 BasicNetwork.r1.eth[1].mac txPausePkUnits:vector ETV
attr interpolationmode none
attr recordingmode vector
attr title "pause units sent"
vector 50 BasicNetwork.r1.eth[1].mac rxPausePkUnits:vector ETV
attr interpolationmode none
attr recordingmode vector
attr title "pause units received"
vector 51 BasicNetwork.r1.eth[1].mac packetReceivedFromUpper:vector(packetBytes) ETV
attr interpolationmode none
attr recordingmode vector(packetBytes)
attr source packetReceivedFromUpper
attr title "packet bytes from higher layer, packetBytes"
vector 52 BasicNetwork.r1.eth[1].mac packetDropIncorrectlyReceived:vector(packetBytes) ETV
attr interpolationmode none
attr recordingmode vector(packetBytes)
attr source packetDropReasonIsIncorrectlyReceived(packetDropped)
attr title "packet drop: incorrectly received, packetBytes"
vector 53 BasicNetwork.r1.eth[1].mac packetDropInterfaceDown:vector(packetBytes) ETV
attr interpolationmode none
attr recordingmode vector(packetBytes)
attr source packetDropReasonIsInterfaceDown(packetDropped)
attr title "packet drop: interface down, packetBytes"
vector 54 BasicNetwork.r1.eth[1].mac packetDropNotAddressedToUs:vector(packetBytes) ETV
attr interpolationmode none
attr recordingmode vector(packetBytes)
attr source packetDropReasonIsNotAddressedToUs(packetDropped)
attr title "packet drop: not addressed to us, packetBytes"
vector 55 BasicNetwork.r1.eth[1] packetDropInterfaceDown:vector(packetBytes) ETV
attr interpolationmode none
attr recordingmode vector(packetBytes)
attr source packetDropReasonIsInterfaceDown(packetDropped)
attr title "packet drops: interface down, packetBytes"
vector 56 BasicNetwork.r1.eth[1] packetDropNoCarrier:vector(packetBytes) ETV
attr interpolationmode none
attr recordingmode vector(packetBytes)
attr source packetDropReasonIsNoCarrier(packetDropped)
attr title "packet drops: no carrier, packetBytes"
vector 57 BasicNetwork.r1.ipv6.neighbourDiscovery startDad:vector ETV
attr recordingmode vector
attr title "DAD started"
vector 58 BasicNetwork.r2.ethernet encapPk:vector(packetBytes) ETV
attr interpolationmode none
attr recordingmode vector(packetBytes)
attr source encapPk
attr title "packets encapsulated, packetBytes"
vector 59 BasicNetwork.r2.ethernet decapPk:vector(packetBytes) ETV
attr interpolationmode none
attr recordingmode vector(packetBytes)
attr source decapPk
attr title "packets decapsulated, packetBytes"
vector 60 BasicNetwork.r2.ethernet pauseSent:vector ETV
attr recordingmode vector
attr title "pause sent"
vector 61 BasicNetwork.r2.lo[0].lo rcvdPkFromHl:vector(packetBytes) ETV
attr interpolationmode none
attr recordingmode vector(packetBytes)
attr source packetReceivedFromUpper
attr title "packets received from higher layer, packetBytes"
vector 62 BasicNetwork.r2.lo[0].lo passedUpPk:vector(packetBytes) ETV
attr interpolationmode none
attr recordingmode vector(packetBytes)
attr source packetSentToUpper
attr title "packets passed to higher layer, packetBytes"
vector 63 BasicNetwork.r2.lo[0] packetDropInterfaceDown:vector(packetBytes) ETV
attr interpolationmode none
attr recordingmode vector(packetBytes)
attr source packetDropReasonIsInterfaceDown(packetDropped)
attr title "packet drops: interface down, packetBytes"
vector 64 BasicNetwork.r2.lo[0] packetDropNoCarrier:vector(packetBytes) ETV
attr interpolationmode none
attr recordingmode vector(packetBytes)
attr source packetDropReasonIsNoCarrier(packetDropped)
attr title "packet drops: no carrier, packetBytes"
vector 65 BasicNetwork.r2.eth[0].queue queueLength:vector ETV
attr autoWarmupFilter false
attr interpolationmode sample-hold
attr recordingmode vector
attr source "warmup(atomic(constant0(packetPushEnded) + count(packetPushStarted) - count(packetPulled) - count(packetRemoved) - count(packetDropped)))"
attr title "queue length"
attr unit pk
vector 66 BasicNetwork.r2.eth[0].queue queueBitLength:vector ETV
attr autoWarmupFilter false
attr interpolationmode sample-hold
attr recordingmode vector
attr source "warmup(atomic(constant0(packetPushEnded) + sum(packetLength(packetPushStarted)) - sum(packetLength(packetPulled)) - sum(packetLength(packetRemoved)) - sum(packetLength(packetDropped))))"
attr title "queue bit length"
attr unit b
vector 67 BasicNetwork.r2.eth[0].queue queueingTime:vector ETV
attr interpolationmode none
attr recordingmode vector
attr source queueingTime(packetPulled)
attr title "queueing times"
attr unit s
vector 68 BasicNetwork.r2.eth[0].queue incomingPacketLengths:vector ETV
attr interpolationmode none
attr recordingmode vector
attr source packetLength(packetPushStarted)
attr title "incoming packet lengths"
attr unit b
vector 69 BasicNetwork.r2.eth[0].queue incomingDataRate:vector ETV
attr interpolationmode linear
attr recordingmode vector
attr source throughput(packetPushStarted)
attr title "incoming datarate"
attr unit bps
vector 70 BasicNetwork.r2.eth[0].queue outgoingPacketLengths:vector ETV
attr interpolationmode none
attr recordingmode vector
attr source packetLength(packetPulled)
attr title "outgoing packet lengths"
attr unit b
vector 71 BasicNetwork.r2.eth[0].queue outgoingDataRate:vector ETV
attr interpolationmode linear
attr recordingmode vector
attr source throughput(packetPulled)
attr title "outgoing datarate"
attr unit bps
vector 72 BasicNetwork.r2.eth[0].queue droppedPacketLengthsQueueOverflow:vector ETV
attr interpolationmode none
attr recordingmode vector
attr source packetLength(packetDropReasonIsQueueOverflow(packetDropped))
attr title "dropped packet lengths: queue overflow"
attr unit b
vector 73 BasicNetwork.r2.eth[0].queue flowQueueingTime:vector ETV
attr interpolationmode none
attr recordingmode vector
attr source queueingTime(demuxFlow(packetPulled))
attr title "flow queueing times"
attr unit s
vector 74 BasicNetwork.r2.eth[0].queue flowIncomingDataRate:vector ETV
attr interpolationmode linear
attr recordingmode vector
attr source throughput(flowPacketLength(demuxFlow(packetPushStarted)))
attr title "flow specific incoming data rate"
attr unit bps
vector 75 BasicNetwork.r2.eth[0].queue flowOutgoingDataRate:vector ETV
attr interpolationmode linear
attr recordingmode vector
attr source throughput(flowPacketLength(demuxFlow(packetPulled)))
attr title "flow specific outgoing data rate"
attr unit bps
vector 76 BasicNetwork.r2.eth[0].mac transmitting:vector ETV
attr interpolationmode sample-hold
attr recordingmode vector
attr source "count(transmissionStarted) - count(transmissionEnded)"
attr title "transmitting state"
attr type int
vector 77 BasicNetwork.r2.eth[0].mac throughput:vector ETV
attr interpolationmode linear
attr recordingmode vector
attr source throughput(transmissionEnded)
attr title throughput
attr unit bps
vector 78 BasicNetwork.r2.eth[0].mac utilization:vector ETV
attr interpolationmode linear
attr recordingmode vector
attr source "100 * utilization(count(transmissionStarted) - count(transmissionEnded))"
attr title utilization
attr unit %
vector 79 BasicNetwork.r2.eth[0].mac txPk:vector(packetBytes) ETV
attr interpolationmode none
attr recordingmode vector(packetBytes)
attr source packetSentToLower
attr title "packets transmitted, packetBytes"
vector 80 BasicNetwork.r2.eth[0].mac rxPkOk:vector(packetBytes) ETV
attr interpolationmode none
attr recordingmode vector(packetBytes)
attr source rxPkOk
attr title "packets received OK, packetBytes"
vector 81 BasicNetwork.r2.eth[0].mac passedUpPk:vector(packetBytes) ETV
attr interpolationmode none
attr recordingmode vector(packetBytes)
attr source packetSentToUpper
attr title "packets passed to higher layer, packetBytes"
vector 82 BasicNetwork.r2.eth[0].mac txPausePkUnits:vector ETV
attr interpolationmode none
attr recordingmode vector
attr title "pause units sent"
vector 83 BasicNetwork.r2.eth[0].mac rxPausePkUnits:vector ETV
attr interpolationmode none
attr recordingmode vector
attr title "pause units received"
vector 84 BasicNetwork.r2.eth[0].mac packetReceivedFromUpper:vector(packetBytes) ETV
attr interpolationmode none
attr recordingmode vector(packetBytes)
attr source packetReceivedFromUpper
attr title "packet bytes from higher layer, packetBytes"
vector 85 BasicNetwork.r2.eth[0].mac packetDropIncorrectlyReceived:vector(packetBytes) ETV
attr interpolationmode none
attr recordingmode vector(packetBytes)
attr source packetDropReasonIsIncorrectlyReceived(packetDropped)
attr title "packet drop: incorrectly received, packetBytes"
vector 86 BasicNetwork.r2.eth[0].mac packetDropInterfaceDown:vector(packetBytes) ETV
attr interpolationmode none
attr recordingmode vector(packetBytes)
attr source packetDropReasonIsInterfaceDown(packetDropped)
attr title "packet drop: interface down, packetBytes"
vector 87 BasicNetwork.r2.eth[0].mac packetDropNotAddressedToUs:vector(packetBytes) ETV
attr interpolationmode none
attr recordingmode vector(packetBytes)
attr source packetDropReasonIsNotAddressedToUs(packetDropped)
attr title "packet drop: not addressed to us, packetBytes"
vector 88 BasicNetwork.r2.eth[0] packetDropInterfaceDown:vector(packetBytes) ETV
attr interpolationmode none
attr recordingmode vector(packetBytes)
attr source packetDropReasonIsInterfaceDown(packetDropped)
attr title "packet drops: interface down, packetBytes"
vector 89 BasicNetwork.r2.eth[0] packetDropNoCarrier:vector(packetBytes) ETV
attr interpolationmode none
attr recordingmode vector(packetBytes)
attr source packetDropReasonIsNoCarrier(packetDropped)
attr title "packet drops: no carrier, packetBytes"
vector 90 BasicNetwork.r2.eth[1].queue queueLength:vector ETV
attr autoWarmupFilter false
attr interpolationmode sample-hold
attr recordingmode vector
attr source "warmup(atomic(constant0(packetPushEnded) + count(packetPushStarted) - count(packetPulled) - count(packetRemoved) - count(packetDropped)))"
attr title "queue length"
attr unit pk
vector 91 BasicNetwork.r2.eth[1].queue queueBitLength:vector ETV
attr autoWarmupFilter false
attr interpolationmode sample-hold
attr recordingmode vector
attr source "warmup(atomic(constant0(packetPushEnded) + sum(packetLength(packetPushStarted)) - sum(packetLength(packetPulled)) - sum(packetLength(packetRemoved)) - sum(packetLength(packetDropped))))"
attr title "queue bit length"
attr unit b
vector 92 BasicNetwork.r2.eth[1].queue queueingTime:vector ETV
attr interpolationmode none
attr recordingmode vector
attr source queueingTime(packetPulled)
attr title "queueing times"
attr unit s
vector 93 BasicNetwork.r2.eth[1].queue incomingPacketLengths:vector ETV
attr interpolationmode none
attr recordingmode vector
attr source packetLength(packetPushStarted)
attr title "incoming packet lengths"
attr unit b
vector 94 BasicNetwork.r2.eth[1].queue incomingDataRate:vector ETV
attr interpolationmode linear
attr recordingmode vector
attr source throughput(packetPushStarted)
attr title "incoming datarate"
attr unit bps
vector 95 BasicNetwork.r2.eth[1].queue outgoingPacketLengths:vector ETV
attr interpolationmode none
attr recordingmode vector
attr source packetLength(packetPulled)
attr title "outgoing packet lengths"
attr unit b
vector 96 BasicNetwork.r2.eth[1].queue outgoingDataRate:vector ETV
attr interpolationmode linear
attr recordingmode vector
attr source throughput(packetPulled)
attr title "outgoing datarate"
attr unit bps
vector 97 BasicNetwork.r2.eth[1].queue droppedPacketLengthsQueueOverflow:vector ETV
attr interpolationmode none
attr recordingmode vector
attr source packetLength(packetDropReasonIsQueueOverflow(packetDropped))
attr title "dropped packet lengths: queue overflow"
attr unit b
vector 98 BasicNetwork.r2.eth[1].queue flowQueueingTime:vector ETV
attr interpolationmode none
attr recordingmode vector
attr source queueingTime(demuxFlow(packetPulled))
attr title "flow queueing times"
attr unit s
vector 99 BasicNetwork.r2.eth[1].queue flowIncomingDataRate:vector ETV
attr interpolationmode linear
attr recordingmode vector
attr source throughput(flowPacketLength(demuxFlow(packetPushStarted)))
attr title "flow specific incoming data rate"
attr unit bps
vector 100 BasicNetwork.r2.eth[1].queue flowOutgoingDataRate:vector ETV
attr interpolationmode linear
attr recordingmode vector
attr source throughput(flowPacketLength(demuxFlow(packetPulled)))
attr title "flow specific outgoing data rate"
attr unit bps
vector 101 BasicNetwork.r2.eth[1].mac transmitting:vector ETV
attr interpolationmode sample-hold
attr recordingmode vector
attr source "count(transmissionStarted) - count(transmissionEnded)"
attr title "transmitting state"
attr type int
vector 102 BasicNetwork.r2.eth[1].mac throughput:vector ETV
attr interpolationmode linear
attr recordingmode vector
attr source throughput(transmissionEnded)
attr title throughput
attr unit bps
vector 103 BasicNetwork.r2.eth[1].mac utilization:vector ETV
attr interpolationmode linear
attr recordingmode vector
attr source "100 * utilization(count(transmissionStarted) - count(transmissionEnded))"
attr title utilization
attr unit %
vector 104 BasicNetwork.r2.eth[1].mac txPk:vector(packetBytes) ETV
attr interpolationmode none
attr recordingmode vector(packetBytes)
attr source packetSentToLower
attr title "packets transmitted, packetBytes"
vector 105 BasicNetwork.r2.eth[1].mac rxPkOk:vector(packetBytes) ETV
attr interpolationmode none
attr recordingmode vector(packetBytes)
attr source rxPkOk
attr title "packets received OK, packetBytes"
vector 106 BasicNetwork.r2.eth[1].mac passedUpPk:vector(packetBytes) ETV
attr interpolationmode none
attr recordingmode vector(packetBytes)
attr source packetSentToUpper
attr title "packets passed to higher layer, packetBytes"
vector 107 BasicNetwork.r2.eth[1].mac txPausePkUnits:vector ETV
attr interpolationmode none
attr recordingmode vector
attr title "pause units sent"
vector 108 BasicNetwork.r2.eth[1].mac rxPausePkUnits:vector ETV
attr interpolationmode none
attr recordingmode vector
attr title "pause units received"
vector 109 BasicNetwork.r2.eth[1].mac packetReceivedFromUpper:vector(packetBytes) ETV
attr interpolationmode none
attr recordingmode vector(packetBytes)
attr source packetReceivedFromUpper
attr title "packet bytes from higher layer, packetBytes"
vector 110 BasicNetwork.r2.eth[1].mac packetDropIncorrectlyReceived:vector(packetBytes) ETV
attr interpolationmode none
attr recordingmode vector(packetBytes)
attr source packetDropReasonIsIncorrectlyReceived(packetDropped)
attr title "packet drop: incorrectly received, packetBytes"
vector 111 BasicNetwork.r2.eth[1].mac packetDropInterfaceDown:vector(packetBytes) ETV
attr interpolationmode none
attr recordingmode vector(packetBytes)
attr source packetDropReasonIsInterfaceDown(packetDropped)
attr title "packet drop: interface down, packetBytes"
vector 112 BasicNetwork.r2.eth[1].mac packetDropNotAddressedToUs:vector(packetBytes) ETV
attr interpolationmode none
attr recordingmode vector(packetBytes)
attr source packetDropReasonIsNotAddressedToUs(packetDropped)
attr title "packet drop: not addressed to us, packetBytes"
vector 113 BasicNetwork.r2.eth[1] packetDropInterfaceDown:vector(packetBytes) ETV
attr interpolationmode none
attr recordingmode vector(packetBytes)
attr source packetDropReasonIsInterfaceDown(packetDropped)
attr title "packet drops: interface down, packetBytes"
vector 114 BasicNetwork.r2.eth[1] packetDropNoCarrier:vector(packetBytes) ETV
attr interpolationmode none
attr recordingmode vector(packetBytes)
attr source packetDropReasonIsNoCarrier(packetDropped)
attr title "packet drops: no carrier, packetBytes"
vector 115 BasicNetwork.r2.eth[2].queue queueLength:vector ETV
attr autoWarmupFilter false
attr interpolationmode sample-hold
attr recordingmode vector
attr source "warmup(atomic(constant0(packetPushEnded) + count(packetPushStarted) - count(packetPulled) - count(packetRemoved) - count(packetDropped)))"
attr title "queue length"
attr unit pk
vector 116 BasicNetwork.r2.eth[2].queue queueBitLength:vector ETV
attr autoWarmupFilter false
attr interpolationmode sample-hold
attr recordingmode vector
attr source "warmup(atomic(constant0(packetPushEnded) + sum(packetLength(packetPushStarted)) - sum(packetLength(packetPulled)) - sum(packetLength(packetRemoved)) - sum(packetLength(packetDropped))))"
attr title "queue bit length"
attr unit b
vector 117 BasicNetwork.r2.eth[2].queue queueingTime:vector ETV
attr interpolationmode none
attr recordingmode vector
attr source queueingTime(packetPulled)
attr title "queueing times"
attr unit s
vector 118 BasicNetwork.r2.eth[2].queue incomingPacketLengths:vector ETV
attr interpolationmode none
attr recordingmode vector
attr source packetLength(packetPushStarted)
attr title "incoming packet lengths"
attr unit b
vector 119 BasicNetwork.r2.eth[2].queue incomingDataRate:vector ETV
attr interpolationmode linear
attr recordingmode vector
attr source throughput(packetPushStarted)
attr title "incoming datarate"
attr unit bps
vector 120 BasicNetwork.r2.eth[2].queue outgoingPacketLengths:vector ETV
attr interpolationmode none
attr recordingmode vector
attr source packetLength(packetPulled)
attr title "outgoing packet lengths"
attr unit b
vector 121 BasicNetwork.r2.eth[2].queue outgoingDataRate:vector ETV
attr interpolationmode linear
attr recordingmode vector
attr source throughput(packetPulled)
attr title "outgoing datarate"
attr unit bps
vector 122 BasicNetwork.r2.eth[2].queue droppedPacketLengthsQueueOverflow:vector ETV
attr interpolationmode none
attr recordingmode vector
attr source packetLength(packetDropReasonIsQueueOverflow(packetDropped))
attr title "dropped packet lengths: queue overflow"
attr unit b
vector 123 BasicNetwork.r2.eth[2].queue flowQueueingTime:vector ETV
attr interpolationmode none
attr recordingmode vector
attr source queueingTime(demuxFlow(packetPulled))
attr title "flow queueing times"
attr unit s
vector 124 BasicNetwork.r2.eth[2].queue flowIncomingDataRate:vector ETV
attr interpolationmode linear
attr recordingmode vector
attr source throughput(flowPacketLength(demuxFlow(packetPushStarted)))
attr title "flow specific incoming data rate"
attr unit bps
vector 125 BasicNetwork.r2.eth[2].queue flowOutgoingDataRate:vector ETV
attr interpolationmode linear
attr recordingmode vector
attr source throughput(flowPacketLength(demuxFlow(packetPulled)))
attr title "flow specific outgoing data rate"
attr unit bps
vector 126 BasicNetwork.r2.eth[2].mac transmitting:vector ETV
attr interpolationmode sample-hold
attr recordingmode vector
attr source "count(transmissionStarted) - count(transmissionEnded)"
attr title "transmitting state"
attr type int
vector 127 BasicNetwork.r2.eth[2].mac throughput:vector ETV
attr interpolationmode linear
attr recordingmode vector
attr source throughput(transmissionEnded)
attr title throughput
attr unit bps
vector 128 BasicNetwork.r2.eth[2].mac utilization:vector ETV
attr interpolationmode linear
attr recordingmode vector
attr source "100 * utilization(count(transmissionStarted) - count(transmissionEnded))"
attr title utilization
attr unit %
vector 129 BasicNetwork.r2.eth[2].mac txPk:vector(packetBytes) ETV
attr interpolationmode none
attr recordingmode vector(packetBytes)
attr source packetSentToLower
attr title "packets transmitted, packetBytes"
vector 130 BasicNetwork.r2.eth[2].mac rxPkOk:vector(packetBytes) ETV
attr interpolationmode none
attr recordingmode vector(packetBytes)
attr source rxPkOk
attr title "packets received OK, packetBytes"
vector 131 BasicNetwork.r2.eth[2].mac passedUpPk:vector(packetBytes) ETV
attr interpolationmode none
attr recordingmode vector(packetBytes)
attr source packetSentToUpper
attr title "packets passed to higher layer, packetBytes"
vector 132 BasicNetwork.r2.eth[2].mac txPausePkUnits:vector ETV
attr interpolationmode none
attr recordingmode vector
attr title "pause units sent"
vector 133 BasicNetwork.r2.eth[2].mac rxPausePkUnits:vector ETV
attr interpolationmode none
attr recordingmode vector
attr title "pause units received"
vector 134 BasicNetwork.r2.eth[2].mac packetReceivedFromUpper:vector(packetBytes) ETV
attr interpolationmode none
attr recordingmode vector(packetBytes)
attr source packetReceivedFromUpper
attr title "packet bytes from higher layer, packetBytes"
vector 135 BasicNetwork.r2.eth[2].mac packetDropIncorrectlyReceived:vector(packetBytes) ETV
attr interpolationmode none
attr recordingmode vector(packetBytes)
attr source packetDropReasonIsIncorrectlyReceived(packetDropped)
attr title "packet drop: incorrectly received, packetBytes"
vector 136 BasicNetwork.r2.eth[2].mac packetDropInterfaceDown:vector(packetBytes) ETV
attr interpolationmode none
attr recordingmode vector(packetBytes)
attr source packetDropReasonIsInterfaceDown(packetDropped)
attr title "packet drop: interface down, packetBytes"
vector 137 BasicNetwork.r2.eth[2].mac packetDropNotAddressedToUs:vector(packetBytes) ETV
attr interpolationmode none
attr recordingmode vector(packetBytes)
attr source packetDropReasonIsNotAddressedToUs(packetDropped)
attr title "packet drop: not addressed to us, packetBytes"
vector 138 BasicNetwork.r2.eth[2] packetDropInterfaceDown:vector(packetBytes) ETV
attr interpolationmode none
attr recordingmode vector(packetBytes)
attr source packetDropReasonIsInterfaceDown(packetDropped)
attr title "packet drops: interface down, packetBytes"
vector 139 BasicNetwork.r2.eth[2] packetDropNoCarrier:vector(packetBytes) ETV
attr interpolationmode none
attr recordingmode vector(packetBytes)
attr source packetDropReasonIsNoCarrier(packetDropped)
attr title "packet drops: no carrier, packetBytes"
vector 140 BasicNetwork.r2.ipv6.neighbourDiscovery startDad:vector ETV
attr recordingmode vector
attr title "DAD started"
vector 141 BasicNetwork.r3.ethernet encapPk:vector(packetBytes) ETV
attr interpolationmode none
attr recordingmode vector(packetBytes)
attr source encapPk
attr title "packets encapsulated, packetBytes"
vector 142 BasicNetwork.r3.ethernet decapPk:vector(packetBytes) ETV
attr interpolationmode none
attr recordingmode vector(packetBytes)
attr source decapPk
attr title "packets decapsulated, packetBytes"
vector 143 BasicNetwork.r3.ethernet pauseSent:vector ETV
attr recordingmode vector
attr title "pause sent"
vector 144 BasicNetwork.r3.lo[0].lo rcvdPkFromHl:vector(packetBytes) ETV
attr interpolationmode none
attr recordingmode vector(packetBytes)
attr source packetReceivedFromUpper
attr title "packets received from higher layer, packetBytes"
vector 145 BasicNetwork.r3.lo[0].lo passedUpPk:vector(packetBytes) ETV
attr interpolationmode none
attr recordingmode vector(packetBytes)
attr source packetSentToUpper
attr title "packets passed to higher layer, packetBytes"
vector 146 BasicNetwork.r3.lo[0] packetDropInterfaceDown:vector(packetBytes) ETV
attr interpolationmode none
attr recordingmode vector(packetBytes)
attr source packetDropReasonIsInterfaceDown(packetDropped)
attr title "packet drops: interface down, packetBytes"
vector 147 BasicNetwork.r3.lo[0] packetDropNoCarrier:vector(packetBytes) ETV
attr interpolationmode none
attr recordingmode vector(packetBytes)
attr source packetDropReasonIsNoCarrier(packetDropped)
attr title "packet drops: no carrier, packetBytes"
vector 148 BasicNetwork.r3.eth[0].queue queueLength:vector ETV
attr autoWarmupFilter false
attr interpolationmode sample-hold
attr recordingmode vector
attr source "warmup(atomic(constant0(packetPushEnded) + count(packetPushStarted) - count(packetPulled) - count(packetRemoved) - count(packetDropped)))"
attr title "queue length"
attr unit pk
vector 149 BasicNetwork.r3.eth[0].queue queueBitLength:vector ETV
attr autoWarmupFilter false
attr interpolationmode sample-hold
attr recordingmode vector
attr source "warmup(atomic(constant0(packetPushEnded) + sum(packetLength(packetPushStarted)) - sum(packetLength(packetPulled)) - sum(packetLength(packetRemoved)) - sum(packetLength(packetDropped))))"
attr title "queue bit length"
attr unit b
vector 150 BasicNetwork.r3.eth[0].queue queueingTime:vector ETV
attr interpolationmode none
attr recordingmode vector
attr source queueingTime(packetPulled)
attr title "queueing times"
attr unit s
vector 151 BasicNetwork.r3.eth[0].queue incomingPacketLengths:vector ETV
attr interpolationmode none
attr recordingmode vector
attr source packetLength(packetPushStarted)
attr title "incoming packet lengths"
attr unit b
vector 152 BasicNetwork.r3.eth[0].queue incomingDataRate:vector ETV
attr interpolationmode linear
attr recordingmode vector
attr source throughput(packetPushStarted)
attr title "incoming datarate"
attr unit bps
vector 153 BasicNetwork.r3.eth[0].queue outgoingPacketLengths:vector ETV
attr interpolationmode none
attr recordingmode vector
attr source packetLength(packetPulled)
attr title "outgoing packet lengths"
attr unit b
vector 154 BasicNetwork.r3.eth[0].queue outgoingDataRate:vector ETV
attr interpolationmode linear
attr recordingmode vector
attr source throughput(packetPulled)
attr title "outgoing datarate"
attr unit bps
vector 155 BasicNetwork.r3.eth[0].queue droppedPacketLengthsQueueOverflow:vector ETV
attr interpolationmode none
attr recordingmode vector
attr source packetLength(packetDropReasonIsQueueOverflow(packetDropped))
attr title "dropped packet lengths: queue overflow"
attr unit b
vector 156 BasicNetwork.r3.eth[0].queue flowQueueingTime:vector ETV
attr interpolationmode none
attr recordingmode vector
attr source queueingTime(demuxFlow(packetPulled))
attr title "flow queueing times"
attr unit s
vector 157 BasicNetwork.r3.eth[0].queue flowIncomingDataRate:vector ETV
attr interpolationmode linear
attr recordingmode vector
attr source throughput(flowPacketLength(demuxFlow(packetPushStarted)))
attr title "flow specific incoming data rate"
attr unit bps
vector 158 BasicNetwork.r3.eth[0].queue flowOutgoingDataRate:vector ETV
attr interpolationmode linear
attr recordingmode vector
attr source throughput(flowPacketLength(demuxFlow(packetPulled)))
attr title "flow specific outgoing data rate"
attr unit bps
vector 159 BasicNetwork.r3.eth[0].mac transmitting:vector ETV
attr interpolationmode sample-hold
attr recordingmode vector
attr source "count(transmissionStarted) - count(transmissionEnded)"
attr title "transmitting state"
attr type int
vector 160 BasicNetwork.r3.eth[0].mac throughput:vector ETV
attr interpolationmode linear
attr recordingmode vector
attr source throughput(transmissionEnded)
attr title throughput
attr unit bps
vector 161 BasicNetwork.r3.eth[0].mac utilization:vector ETV
attr interpolationmode linear
attr recordingmode vector
attr source "100 * utilization(count(transmissionStarted) - count(transmissionEnded))"
attr title utilization
attr unit %
vector 162 BasicNetwork.r3.eth[0].mac txPk:vector(packetBytes) ETV
attr interpolationmode none
attr recordingmode vector(packetBytes)
attr source packetSentToLower
attr title "packets transmitted, packetBytes"
vector 163 BasicNetwork.r3.eth[0].mac rxPkOk:vector(packetBytes) ETV
attr interpolationmode none
attr recordingmode vector(packetBytes)
attr source rxPkOk
attr title "packets received OK, packetBytes"
vector 164 BasicNetwork.r3.eth[0].mac passedUpPk:vector(packetBytes) ETV
attr interpolationmode none
attr recordingmode vector(packetBytes)
attr source packetSentToUpper
attr title "packets passed to higher layer, packetBytes"
vector 165 BasicNetwork.r3.eth[0].mac txPausePkUnits:vector ETV
attr interpolationmode none
attr recordingmode vector
attr title "pause units sent"
vector 166 BasicNetwork.r3.eth[0].mac rxPausePkUnits:vector ETV
attr interpolationmode none
attr recordingmode vector
attr title "pause units received"
vector 167 BasicNetwork.r3.eth[0].mac packetReceivedFromUpper:vector(packetBytes) ETV
attr interpolationmode none
attr recordingmode vector(packetBytes)
attr source packetReceivedFromUpper
attr title "packet bytes from higher layer, packetBytes"
vector 168 BasicNetwork.r3.eth[0].mac packetDropIncorrectlyReceived:vector(packetBytes) ETV
attr interpolationmode none
attr recordingmode vector(packetBytes)
attr source packetDropReasonIsIncorrectlyReceived(packetDropped)
attr title "packet drop: incorrectly received, packetBytes"
vector 169 BasicNetwork.r3.eth[0].mac packetDropInterfaceDown:vector(packetBytes) ETV
attr interpolationmode none
attr recordingmode vector(packetBytes)
attr source packetDropReasonIsInterfaceDown(packetDropped)
attr title "packet drop: interface down, packetBytes"
vector 170 BasicNetwork.r3.eth[0].mac packetDropNotAddressedToUs:vector(packetBytes) ETV
attr interpolationmode none
attr recordingmode vector(packetBytes)
attr source packetDropReasonIsNotAddressedToUs(packetDropped)
attr title "packet drop: not addressed to us, packetBytes"
vector 171 BasicNetwork.r3.eth[0] packetDropInterfaceDown:vector(packetBytes) ETV
attr interpolationmode none
attr recordingmode vector(packetBytes)
attr source packetDropReasonIsInterfaceDown(packetDropped)
attr title "packet drops: interface down, packetBytes"
vector 172 BasicNetwork.r3.eth[0] packetDropNoCarrier:vector(packetBytes) ETV
attr interpolationmode none
attr recordingmode vector(packetBytes)
attr source packetDropReasonIsNoCarrier(packetDropped)
attr title "packet drops: no carrier, packetBytes"
vector 173 BasicNetwork.r3.eth[1].queue queueLength:vector ETV
attr autoWarmupFilter false
attr interpolationmode sample-hold
attr recordingmode vector
attr source "warmup(atomic(constant0(packetPushEnded) + count(packetPushStarted) - count(packetPulled) - count(packetRemoved) - count(packetDropped)))"
attr title "queue length"
attr unit pk
vector 174 BasicNetwork.r3.eth[1].queue queueBitLength:vector ETV
attr autoWarmupFilter false
attr interpolationmode sample-hold
attr recordingmode vector
attr source "warmup(atomic(constant0(packetPushEnded) + sum(packetLength(packetPushStarted)) - sum(packetLength(packetPulled)) - sum(packetLength(packetRemoved)) - sum(packetLength(packetDropped))))"
attr title "queue bit length"
attr unit b
vector 175 BasicNetwork.r3.eth[1].queue queueingTime:vector ETV
attr interpolationmode none
attr recordingmode vector
attr source queueingTime(packetPulled)
attr title "queueing times"
attr unit s
vector 176 BasicNetwork.r3.eth[1].queue incomingPacketLengths:vector ETV
attr interpolationmode none
attr recordingmode vector
attr source packetLength(packetPushStarted)
attr title "incoming packet lengths"
attr unit b
vector 177 BasicNetwork.r3.eth[1].queue incomingDataRate:vector ETV
attr interpolationmode linear
attr recordingmode vector
attr source throughput(packetPushStarted)
attr title "incoming datarate"
attr unit bps
vector 178 BasicNetwork.r3.eth[1].queue outgoingPacketLengths:vector ETV
attr interpolationmode none
attr recordingmode vector
attr source packetLength(packetPulled)
attr title "outgoing packet lengths"
attr unit b
vector 179 BasicNetwork.r3.eth[1].queue outgoingDataRate:vector ETV
attr interpolationmode linear
attr recordingmode vector
attr source throughput(packetPulled)
attr title "outgoing datarate"
attr unit bps
vector 180 BasicNetwork.r3.eth[1].queue droppedPacketLengthsQueueOverflow:vector ETV
attr interpolationmode none
attr recordingmode vector
attr source packetLength(packetDropReasonIsQueueOverflow(packetDropped))
attr title "dropped packet lengths: queue overflow"
attr unit b
vector 181 BasicNetwork.r3.eth[1].queue flowQueueingTime:vector ETV
attr interpolationmode none
attr recordingmode vector
attr source queueingTime(demuxFlow(packetPulled))
attr title "flow queueing times"
attr unit s
vector 182 BasicNetwork.r3.eth[1].queue flowIncomingDataRate:vector ETV
attr interpolationmode linear
attr recordingmode vector
attr source throughput(flowPacketLength(demuxFlow(packetPushStarted)))
attr title "flow specific incoming data rate"
attr unit bps
vector 183 BasicNetwork.r3.eth[1].queue flowOutgoingDataRate:vector ETV
attr interpolationmode linear
attr recordingmode vector
attr source throughput(flowPacketLength(demuxFlow(packetPulled)))
attr title "flow specific outgoing data rate"
attr unit bps
vector 184 BasicNetwork.r3.eth[1].mac transmitting:vector ETV
attr interpolationmode sample-hold
attr recordingmode vector
attr source "count(transmissionStarted) - count(transmissionEnded)"
attr title "transmitting state"
attr type int
vector 185 BasicNetwork.r3.eth[1].mac throughput:vector ETV
attr interpolationmode linear
attr recordingmode vector
attr source throughput(transmissionEnded)
attr title throughput
attr unit bps
vector 186 BasicNetwork.r3.eth[1].mac utilization:vector ETV
attr interpolationmode linear
attr recordingmode vector
attr source "100 * utilization(count(transmissionStarted) - count(transmissionEnded))"
attr title utilization
attr unit %
vector 187 BasicNetwork.r3.eth[1].mac txPk:vector(packetBytes) ETV
attr interpolationmode none
attr recordingmode vector(packetBytes)
attr source packetSentToLower
attr title "packets transmitted, packetBytes"
vector 188 BasicNetwork.r3.eth[1].mac rxPkOk:vector(packetBytes) ETV
attr interpolationmode none
attr recordingmode vector(packetBytes)
attr source rxPkOk
attr title "packets received OK, packetBytes"
vector 189 BasicNetwork.r3.eth[1].mac passedUpPk:vector(packetBytes) ETV
attr interpolationmode none
attr recordingmode vector(packetBytes)
attr source packetSentToUpper
attr title "packets passed to higher layer, packetBytes"
vector 190 BasicNetwork.r3.eth[1].mac txPausePkUnits:vector ETV
attr interpolationmode none
attr recordingmode vector
attr title "pause units sent"
vector 191 BasicNetwork.r3.eth[1].mac rxPausePkUnits:vector ETV
attr interpolationmode none
attr recordingmode vector
attr title "pause units received"
vector 192 BasicNetwork.r3.eth[1].mac packetReceivedFromUpper:vector(packetBytes) ETV
attr interpolationmode none
attr recordingmode vector(packetBytes)
attr source packetReceivedFromUpper
attr title "packet bytes from higher layer, packetBytes"
vector 193 BasicNetwork.r3.eth[1].mac packetDropIncorrectlyReceived:vector(packetBytes) ETV
attr interpolationmode none
attr recordingmode vector(packetBytes)
attr source packetDropReasonIsIncorrectlyReceived(packetDropped)
attr title "packet drop: incorrectly received, packetBytes"
vector 194 BasicNetwork.r3.eth[1].mac packetDropInterfaceDown:vector(packetBytes) ETV
attr interpolationmode none
attr recordingmode vector(packetBytes)
attr source packetDropReasonIsInterfaceDown(packetDropped)
attr title "packet drop: interface down, packetBytes"
vector 195 BasicNetwork.r3.eth[1].mac packetDropNotAddressedToUs:vector(packetBytes) ETV
attr interpolationmode none
attr recordingmode vector(packetBytes)
attr source packetDropReasonIsNotAddressedToUs(packetDropped)
attr title "packet drop: not addressed to us, packetBytes"
vector 196 BasicNetwork.r3.eth[1] packetDropInterfaceDown:vector(packetBytes) ETV
attr interpolationmode none
attr recordingmode vector(packetBytes)
attr source packetDropReasonIsInterfaceDown(packetDropped)
attr title "packet drops: interface down, packetBytes"
vector 197 BasicNetwork.r3.eth[1] packetDropNoCarrier:vector(packetBytes) ETV
attr interpolationmode none
attr recordingmode vector(packetBytes)
attr source packetDropReasonIsNoCarrier(packetDropped)
attr title "packet drops: no carrier, packetBytes"
vector 198 BasicNetwork.r3.ipv6.neighbourDiscovery startDad:vector ETV
attr recordingmode vector
attr title "DAD started"
vector 199 BasicNetwork.r4.ethernet encapPk:vector(packetBytes) ETV
attr interpolationmode none
attr recordingmode vector(packetBytes)
attr source encapPk
attr title "packets encapsulated, packetBytes"
vector 200 BasicNetwork.r4.ethernet decapPk:vector(packetBytes) ETV
attr interpolationmode none
attr recordingmode vector(packetBytes)
attr source decapPk
attr title "packets decapsulated, packetBytes"
vector 201 BasicNetwork.r4.ethernet pauseSent:vector ETV
attr recordingmode vector
attr title "pause sent"
vector 202 BasicNetwork.r4.lo[0].lo rcvdPkFromHl:vector(packetBytes) ETV
attr interpolationmode none
attr recordingmode vector(packetBytes)
attr source packetReceivedFromUpper
attr title "packets received from higher layer, packetBytes"
vector 203 BasicNetwork.r4.lo[0].lo passedUpPk:vector(packetBytes) ETV
attr interpolationmode none
attr recordingmode vector(packetBytes)
attr source packetSentToUpper
attr title "packets passed to higher layer, packetBytes"
vector 204 BasicNetwork.r4.lo[0] packetDropInterfaceDown:vector(packetBytes) ETV
attr interpolationmode none
attr recordingmode vector(packetBytes)
attr source packetDropReasonIsInterfaceDown(packetDropped)
attr title "packet drops: interface down, packetBytes"
vector 205 BasicNetwork.r4.lo[0] packetDropNoCarrier:vector(packetBytes) ETV
attr interpolationmode none
attr recordingmode vector(packetBytes)
attr source packetDropReasonIsNoCarrier(packetDropped)
attr title "packet drops: no carrier, packetBytes"
vector 206 BasicNetwork.r4.eth[0].queue queueLength:vector ETV
attr autoWarmupFilter false
attr interpolationmode sample-hold
attr recordingmode vector
attr source "warmup(atomic(constant0(packetPushEnded) + count(packetPushStarted) - count(packetPulled) - count(packetRemoved) - count(packetDropped)))"
attr title "queue length"
attr unit pk
vector 207 BasicNetwork.r4.eth[0].queue queueBitLength:vector ETV
attr autoWarmupFilter false
attr interpolationmode sample-hold
attr recordingmode vector
attr source "warmup(atomic(constant0(packetPushEnded) + sum(packetLength(packetPushStarted)) - sum(packetLength(packetPulled)) - sum(packetLength(packetRemoved)) - sum(packetLength(packetDropped))))"
attr title "queue bit length"
attr unit b
vector 208 BasicNetwork.r4.eth[0].queue queueingTime:vector ETV
attr interpolationmode none
attr recordingmode vector
attr source queueingTime(packetPulled)
attr title "queueing times"
attr unit s
vector 209 BasicNetwork.r4.eth[0].queue incomingPacketLengths:vector ETV
attr interpolationmode none
attr recordingmode vector
attr source packetLength(packetPushStarted)
attr title "incoming packet lengths"
attr unit b
vector 210 BasicNetwork.r4.eth[0].queue incomingDataRate:vector ETV
attr interpolationmode linear
attr recordingmode vector
attr source throughput(packetPushStarted)
attr title "incoming datarate"
attr unit bps
vector 211 BasicNetwork.r4.eth[0].queue outgoingPacketLengths:vector ETV
attr interpolationmode none
attr recordingmode vector
attr source packetLength(packetPulled)
attr title "outgoing packet lengths"
attr unit b
vector 212 BasicNetwork.r4.eth[0].queue outgoingDataRate:vector ETV
attr interpolationmode linear
attr recordingmode vector
attr source throughput(packetPulled)
attr title "outgoing datarate"
attr unit bps
vector 213 BasicNetwork.r4.eth[0].queue droppedPacketLengthsQueueOverflow:vector ETV
attr interpolationmode none
attr recordingmode vector
attr source packetLength(packetDropReasonIsQueueOverflow(packetDropped))
attr title "dropped packet lengths: queue overflow"
attr unit b
vector 214 BasicNetwork.r4.eth[0].queue flowQueueingTime:vector ETV
attr interpolationmode none
attr recordingmode vector
attr source queueingTime(demuxFlow(packetPulled))
attr title "flow queueing times"
attr unit s
vector 215 BasicNetwork.r4.eth[0].queue flowIncomingDataRate:vector ETV
attr interpolationmode linear
attr recordingmode vector
attr source throughput(flowPacketLength(demuxFlow(packetPushStarted)))
attr title "flow specific incoming data rate"
attr unit bps
vector 216 BasicNetwork.r4.eth[0].queue flowOutgoingDataRate:vector ETV
attr interpolationmode linear
attr recordingmode vector
attr source throughput(flowPacketLength(demuxFlow(packetPulled)))
attr title "flow specific outgoing data rate"
attr unit bps
vector 217 BasicNetwork.r4.eth[0].mac transmitting:vector ETV
attr interpolationmode sample-hold
attr recordingmode vector
attr source "count(transmissionStarted) - count(transmissionEnded)"
attr title "transmitting state"
attr type int
vector 218 BasicNetwork.r4.eth[0].mac throughput:vector ETV
attr interpolationmode linear
attr recordingmode vector
attr source throughput(transmissionEnded)
attr title throughput
attr unit bps
vector 219 BasicNetwork.r4.eth[0].mac utilization:vector ETV
attr interpolationmode linear
attr recordingmode vector
attr source "100 * utilization(count(transmissionStarted) - count(transmissionEnded))"
attr title utilization
attr unit %
vector 220 BasicNetwork.r4.eth[0].mac txPk:vector(packetBytes) ETV
attr interpolationmode none
attr recordingmode vector(packetBytes)
attr source packetSentToLower
attr title "packets transmitted, packetBytes"
vector 221 BasicNetwork.r4.eth[0].mac rxPkOk:vector(packetBytes) ETV
attr interpolationmode none
attr recordingmode vector(packetBytes)
attr source rxPkOk
attr title "packets received OK, packetBytes"
vector 222 BasicNetwork.r4.eth[0].mac passedUpPk:vector(packetBytes) ETV
attr interpolationmode none
attr recordingmode vector(packetBytes)
attr source packetSentToUpper
attr title "packets passed to higher layer, packetBytes"
vector 223 BasicNetwork.r4.eth[0].mac txPausePkUnits:vector ETV
attr interpolationmode none
attr recordingmode vector
attr title "pause units sent"
vector 224 BasicNetwork.r4.eth[0].mac rxPausePkUnits:vector ETV
attr interpolationmode none
attr recordingmode vector
attr title "pause units received"
vector 225 BasicNetwork.r4.eth[0].mac packetReceivedFromUpper:vector(packetBytes) ETV
attr interpolationmode none
attr recordingmode vector(packetBytes)
attr source packetReceivedFromUpper
attr title "packet bytes from higher layer, packetBytes"
vector 226 BasicNetwork.r4.eth[0].mac packetDropIncorrectlyReceived:vector(packetBytes) ETV
attr interpolationmode none
attr recordingmode vector(packetBytes)
attr source packetDropReasonIsIncorrectlyReceived(packetDropped)
attr title "packet drop: incorrectly received, packetBytes"
vector 227 BasicNetwork.r4.eth[0].mac packetDropInterfaceDown:vector(packetBytes) ETV
attr interpolationmode none
attr recordingmode vector(packetBytes)
attr source packetDropReasonIsInterfaceDown(packetDropped)
attr title "packet drop: interface down, packetBytes"
vector 228 BasicNetwork.r4.eth[0].mac packetDropNotAddressedToUs:vector(packetBytes) ETV
attr interpolationmode none
attr recordingmode vector(packetBytes)
attr source packetDropReasonIsNotAddressedToUs(packetDropped)
attr title "packet drop: not addressed to us, packetBytes"
vector 229 BasicNetwork.r4.eth[0] packetDropInterfaceDown:vector(packetBytes) ETV
attr interpolationmode none
attr recordingmode vector(packetBytes)
attr source packetDropReasonIsInterfaceDown(packetDropped)
attr title "packet drops: interface down, packetBytes"
vector 230 BasicNetwork.r4.eth[0] packetDropNoCarrier:vector(packetBytes) ETV
attr interpolationmode none
attr recordingmode vector(packetBytes)
attr source packetDropReasonIsNoCarrier(packetDropped)
attr title "packet drops: no carrier, packetBytes"
vector 231 BasicNetwork.r4.eth[1].queue queueLength:vector ETV
attr autoWarmupFilter false
attr interpolationmode sample-hold
attr recordingmode vector
attr source "warmup(atomic(constant0(packetPushEnded) + count(packetPushStarted) - count(packetPulled) - count(packetRemoved) - count(packetDropped)))"
attr title "queue length"
attr unit pk
vector 232 BasicNetwork.r4.eth[1].queue queueBitLength:vector ETV
attr autoWarmupFilter false
attr interpolationmode sample-hold
attr recordingmode vector
attr source "warmup(atomic(constant0(packetPushEnded) + sum(packetLength(packetPushStarted)) - sum(packetLength(packetPulled)) - sum(packetLength(packetRemoved)) - sum(packetLength(packetDropped))))"
attr title "queue bit length"
attr unit b
vector 233 BasicNetwork.r4.eth[1].queue queueingTime:vector ETV
attr interpolationmode none
attr recordingmode vector
attr source queueingTime(packetPulled)
attr title "queueing times"
attr unit s
vector 234 BasicNetwork.r4.eth[1].queue incomingPacketLengths:vector ETV
attr interpolationmode none
attr recordingmode vector
attr source packetLength(packetPushStarted)
attr title "incoming packet lengths"
attr unit b
vector 235 BasicNetwork.r4.eth[1].queue incomingDataRate:vector ETV
attr interpolationmode linear
attr recordingmode vector
attr source throughput(packetPushStarted)
attr title "incoming datarate"
attr unit bps
vector 236 BasicNetwork.r4.eth[1].queue outgoingPacketLengths:vector ETV
attr interpolationmode none
attr recordingmode vector
attr source packetLength(packetPulled)
attr title "outgoing packet lengths"
attr unit b
vector 237 BasicNetwork.r4.eth[1].queue outgoingDataRate:vector ETV
attr interpolationmode linear
attr recordingmode vector
attr source throughput(packetPulled)
attr title "outgoing datarate"
attr unit bps
vector 238 BasicNetwork.r4.eth[1].queue droppedPacketLengthsQueueOverflow:vector ETV
attr interpolationmode none
attr recordingmode vector
attr source packetLength(packetDropReasonIsQueueOverflow(packetDropped))
attr title "dropped packet lengths: queue overflow"
attr unit b
vector 239 BasicNetwork.r4.eth[1].queue flowQueueingTime:vector ETV
attr interpolationmode none
attr recordingmode vector
attr source queueingTime(demuxFlow(packetPulled))
attr title "flow queueing times"
attr unit s
vector 240 BasicNetwork.r4.eth[1].queue flowIncomingDataRate:vector ETV
attr interpolationmode linear
attr recordingmode vector
attr source throughput(flowPacketLength(demuxFlow(packetPushStarted)))
attr title "flow specific incoming data rate"
attr unit bps
vector 241 BasicNetwork.r4.eth[1].queue flowOutgoingDataRate:vector ETV
attr interpolationmode linear
attr recordingmode vector
attr source throughput(flowPacketLength(demuxFlow(packetPulled)))
attr title "flow specific outgoing data rate"
attr unit bps
vector 242 BasicNetwork.r4.eth[1].mac transmitting:vector ETV
attr interpolationmode sample-hold
attr recordingmode vector
attr source "count(transmissionStarted) - count(transmissionEnded)"
attr title "transmitting state"
attr type int
vector 243 BasicNetwork.r4.eth[1].mac throughput:vector ETV
attr interpolationmode linear
attr recordingmode vector
attr source throughput(transmissionEnded)
attr title throughput
attr unit bps
vector 244 BasicNetwork.r4.eth[1].mac utilization:vector ETV
attr interpolationmode linear
attr recordingmode vector
attr source "100 * utilization(count(transmissionStarted) - count(transmissionEnded))"
attr title utilization
attr unit %
vector 245 BasicNetwork.r4.eth[1].mac txPk:vector(packetBytes) ETV
attr interpolationmode none
attr recordingmode vector(packetBytes)
attr source packetSentToLower
attr title "packets transmitted, packetBytes"
vector 246 BasicNetwork.r4.eth[1].mac rxPkOk:vector(packetBytes) ETV
attr interpolationmode none
attr recordingmode vector(packetBytes)
attr source rxPkOk
attr title "packets received OK, packetBytes"
vector 247 BasicNetwork.r4.eth[1].mac passedUpPk:vector(packetBytes) ETV
attr interpolationmode none
attr recordingmode vector(packetBytes)
attr source packetSentToUpper
attr title "packets passed to higher layer, packetBytes"
vector 248 BasicNetwork.r4.eth[1].mac txPausePkUnits:vector ETV
attr interpolationmode none
attr recordingmode vector
attr title "pause units sent"
vector 249 BasicNetwork.r4.eth[1].mac rxPausePkUnits:vector ETV
attr interpolationmode none
attr recordingmode vector
attr title "pause units received"
vector 250 BasicNetwork.r4.eth[1].mac packetReceivedFromUpper:vector(packetBytes) ETV
attr interpolationmode none
attr recordingmode vector(packetBytes)
attr source packetReceivedFromUpper
attr title "packet bytes from higher layer, packetBytes"
vector 251 BasicNetwork.r4.eth[1].mac packetDropIncorrectlyReceived:vector(packetBytes) ETV
attr interpolationmode none
attr recordingmode vector(packetBytes)
attr source packetDropReasonIsIncorrectlyReceived(packetDropped)
attr title "packet drop: incorrectly received, packetBytes"
vector 252 BasicNetwork.r4.eth[1].mac packetDropInterfaceDown:vector(packetBytes) ETV
attr interpolationmode none
attr recordingmode vector(packetBytes)
attr source packetDropReasonIsInterfaceDown(packetDropped)
attr title "packet drop: interface down, packetBytes"
vector 253 BasicNetwork.r4.eth[1].mac packetDropNotAddressedToUs:vector(packetBytes) ETV
attr interpolationmode none
attr recordingmode vector(packetBytes)
attr source packetDropReasonIsNotAddressedToUs(packetDropped)
attr title "packet drop: not addressed to us, packetBytes"
vector 254 BasicNetwork.r4.eth[1] packetDropInterfaceDown:vector(packetBytes) ETV
attr interpolationmode none
attr recordingmode vector(packetBytes)
attr source packetDropReasonIsInterfaceDown(packetDropped)
attr title "packet drops: interface down, packetBytes"
vector 255 BasicNetwork.r4.eth[1] packetDropNoCarrier:vector(packetBytes) ETV
attr interpolationmode none
attr recordingmode vector(packetBytes)
attr source packetDropReasonIsNoCarrier(packetDropped)
attr title "packet drops: no carrier, packetBytes"
vector 256 BasicNetwork.r4.ipv6.neighbourDiscovery startDad:vector ETV
attr recordingmode vector
attr title "DAD started"
vector 257 BasicNetwork.r5.ethernet encapPk:vector(packetBytes) ETV
attr interpolationmode none
attr recordingmode vector(packetBytes)
attr source encapPk
attr title "packets encapsulated, packetBytes"
vector 258 BasicNetwork.r5.ethernet decapPk:vector(packetBytes) ETV
attr interpolationmode none
attr recordingmode vector(packetBytes)
attr source decapPk
attr title "packets decapsulated, packetBytes"
vector 259 BasicNetwork.r5.ethernet pauseSent:vector ETV
attr recordingmode vector
attr title "pause sent"
vector 260 BasicNetwork.r5.lo[0].lo rcvdPkFromHl:vector(packetBytes) ETV
attr interpolationmode none
attr recordingmode vector(packetBytes)
attr source packetReceivedFromUpper
attr title "packets received from higher layer, packetBytes"
vector 261 BasicNetwork.r5.lo[0].lo passedUpPk:vector(packetBytes) ETV
attr interpolationmode none
attr recordingmode vector(packetBytes)
attr source packetSentToUpper
attr title "packets passed to higher layer, packetBytes"
vector 262 BasicNetwork.r5.lo[0] packetDropInterfaceDown:vector(packetBytes) ETV
attr interpolationmode none
attr recordingmode vector(packetBytes)
attr source packetDropReasonIsInterfaceDown(packetDropped)
attr title "packet drops: interface down, packetBytes"
vector 263 BasicNetwork.r5.lo[0] packetDropNoCarrier:vector(packetBytes) ETV
attr interpolationmode none
attr recordingmode vector(packetBytes)
attr source packetDropReasonIsNoCarrier(packetDropped)
attr title "packet drops: no carrier, packetBytes"
vector 264 BasicNetwork.r5.eth[0].queue queueLength:vector ETV
attr autoWarmupFilter false
attr interpolationmode sample-hold
attr recordingmode vector
attr source "warmup(atomic(constant0(packetPushEnded) + count(packetPushStarted) - count(packetPulled) - count(packetRemoved) - count(packetDropped)))"
attr title "queue length"
attr unit pk
vector 265 BasicNetwork.r5.eth[0].queue queueBitLength:vector ETV
attr autoWarmupFilter false
attr interpolationmode sample-hold
attr recordingmode vector
attr source "warmup(atomic(constant0(packetPushEnded) + sum(packetLength(packetPushStarted)) - sum(packetLength(packetPulled)) - sum(packetLength(packetRemoved)) - sum(packetLength(packetDropped))))"
attr title "queue bit length"
attr unit b
vector 266 BasicNetwork.r5.eth[0].queue queueingTime:vector ETV
attr interpolationmode none
attr recordingmode vector
attr source queueingTime(packetPulled)
attr title "queueing times"
attr unit s
vector 267 BasicNetwork.r5.eth[0].queue incomingPacketLengths:vector ETV
attr interpolationmode none
attr recordingmode vector
attr source packetLength(packetPushStarted)
attr title "incoming packet lengths"
attr unit b
vector 268 BasicNetwork.r5.eth[0].queue incomingDataRate:vector ETV
attr interpolationmode linear
attr recordingmode vector
attr source throughput(packetPushStarted)
attr title "incoming datarate"
attr unit bps
vector 269 BasicNetwork.r5.eth[0].queue outgoingPacketLengths:vector ETV
attr interpolationmode none
attr recordingmode vector
attr source packetLength(packetPulled)
attr title "outgoing packet lengths"
attr unit b
vector 270 BasicNetwork.r5.eth[0].queue outgoingDataRate:vector ETV
attr interpolationmode linear
attr recordingmode vector
attr source throughput(packetPulled)
attr title "outgoing datarate"
attr unit bps
vector 271 BasicNetwork.r5.eth[0].queue droppedPacketLengthsQueueOverflow:vector ETV
attr interpolationmode none
attr recordingmode vector
attr source packetLength(packetDropReasonIsQueueOverflow(packetDropped))
attr title "dropped packet lengths: queue overflow"
attr unit b
vector 272 BasicNetwork.r5.eth[0].queue flowQueueingTime:vector ETV
attr interpolationmode none
attr recordingmode vector
attr source queueingTime(demuxFlow(packetPulled))
attr title "flow queueing times"
attr unit s
vector 273 BasicNetwork.r5.eth[0].queue flowIncomingDataRate:vector ETV
attr interpolationmode linear
attr recordingmode vector
attr source throughput(flowPacketLength(demuxFlow(packetPushStarted)))
attr title "flow specific incoming data rate"
attr unit bps
vector 274 BasicNetwork.r5.eth[0].queue flowOutgoingDataRate:vector ETV
attr interpolationmode linear
attr recordingmode vector
attr source throughput(flowPacketLength(demuxFlow(packetPulled)))
attr title "flow specific outgoing data rate"
attr unit bps
vector 275 BasicNetwork.r5.eth[0].mac transmitting:vector ETV
attr interpolationmode sample-hold
attr recordingmode vector
attr source "count(transmissionStarted) - count(transmissionEnded)"
attr title "transmitting state"
attr type int
vector 276 BasicNetwork.r5.eth[0].mac throughput:vector ETV
attr interpolationmode linear
attr recordingmode vector
attr source throughput(transmissionEnded)
attr title throughput
attr unit bps
vector 277 BasicNetwork.r5.eth[0].mac utilization:vector ETV
attr interpolationmode linear
attr recordingmode vector
attr source "100 * utilization(count(transmissionStarted) - count(transmissionEnded))"
attr title utilization
attr unit %
vector 278 BasicNetwork.r5.eth[0].mac txPk:vector(packetBytes) ETV
attr interpolationmode none
attr recordingmode vector(packetBytes)
attr source packetSentToLower
attr title "packets transmitted, packetBytes"
vector 279 BasicNetwork.r5.eth[0].mac rxPkOk:vector(packetBytes) ETV
attr interpolationmode none
attr recordingmode vector(packetBytes)
attr source rxPkOk
attr title "packets received OK, packetBytes"
vector 280 BasicNetwork.r5.eth[0].mac passedUpPk:vector(packetBytes) ETV
attr interpolationmode none
attr recordingmode vector(packetBytes)
attr source packetSentToUpper
attr title "packets passed to higher layer, packetBytes"
vector 281 BasicNetwork.r5.eth[0].mac txPausePkUnits:vector ETV
attr interpolationmode none
attr recordingmode vector
attr title "pause units sent"
vector 282 BasicNetwork.r5.eth[0].mac rxPausePkUnits:vector ETV
attr interpolationmode none
attr recordingmode vector
attr title "pause units received"
vector 283 BasicNetwork.r5.eth[0].mac packetReceivedFromUpper:vector(packetBytes) ETV
attr interpolationmode none
attr recordingmode vector(packetBytes)
attr source packetReceivedFromUpper
attr title "packet bytes from higher layer, packetBytes"
vector 284 BasicNetwork.r5.eth[0].mac packetDropIncorrectlyReceived:vector(packetBytes) ETV
attr interpolationmode none
attr recordingmode vector(packetBytes)
attr source packetDropReasonIsIncorrectlyReceived(packetDropped)
attr title "packet drop: incorrectly received, packetBytes"
vector 285 BasicNetwork.r5.eth[0].mac packetDropInterfaceDown:vector(packetBytes) ETV
attr interpolationmode none
attr recordingmode vector(packetBytes)
attr source packetDropReasonIsInterfaceDown(packetDropped)
attr title "packet drop: interface down, packetBytes"
vector 286 BasicNetwork.r5.eth[0].mac packetDropNotAddressedToUs:vector(packetBytes) ETV
attr interpolationmode none
attr recordingmode vector(packetBytes)
attr source packetDropReasonIsNotAddressedToUs(packetDropped)
attr title "packet drop: not addressed to us, packetBytes"
vector 287 BasicNetwork.r5.eth[0] packetDropInterfaceDown:vector(packetBytes) ETV
attr interpolationmode none
attr recordingmode vector(packetBytes)
attr source packetDropReasonIsInterfaceDown(packetDropped)
attr title "packet drops: interface down, packetBytes"
vector 288 BasicNetwork.r5.eth[0] packetDropNoCarrier:vector(packetBytes) ETV
attr interpolationmode none
attr recordingmode vector(packetBytes)
attr source packetDropReasonIsNoCarrier(packetDropped)
attr title "packet drops: no carrier, packetBytes"
vector 289 BasicNetwork.r5.eth[1].queue queueLength:vector ETV
attr autoWarmupFilter false
attr interpolationmode sample-hold
attr recordingmode vector
attr source "warmup(atomic(constant0(packetPushEnded) + count(packetPushStarted) - count(packetPulled) - count(packetRemoved) - count(packetDropped)))"
attr title "queue length"
attr unit pk
vector 290 BasicNetwork.r5.eth[1].queue queueBitLength:vector ETV
attr autoWarmupFilter false
attr interpolationmode sample-hold
attr recordingmode vector
attr source "warmup(atomic(constant0(packetPushEnded) + sum(packetLength(packetPushStarted)) - sum(packetLength(packetPulled)) - sum(packetLength(packetRemoved)) - sum(packetLength(packetDropped))))"
attr title "queue bit length"
attr unit b
vector 291 BasicNetwork.r5.eth[1].queue queueingTime:vector ETV
attr interpolationmode none
attr recordingmode vector
attr source queueingTime(packetPulled)
attr title "queueing times"
attr unit s
vector 292 BasicNetwork.r5.eth[1].queue incomingPacketLengths:vector ETV
attr interpolationmode none
attr recordingmode vector
attr source packetLength(packetPushStarted)
attr title "incoming packet lengths"
attr unit b
vector 293 BasicNetwork.r5.eth[1].queue incomingDataRate:vector ETV
attr interpolationmode linear
attr recordingmode vector
attr source throughput(packetPushStarted)
attr title "incoming datarate"
attr unit bps
vector 294 BasicNetwork.r5.eth[1].queue outgoingPacketLengths:vector ETV
attr interpolationmode none
attr recordingmode vector
attr source packetLength(packetPulled)
attr title "outgoing packet lengths"
attr unit b
vector 295 BasicNetwork.r5.eth[1].queue outgoingDataRate:vector ETV
attr interpolationmode linear
attr recordingmode vector
attr source throughput(packetPulled)
attr title "outgoing datarate"
attr unit bps
vector 296 BasicNetwork.r5.eth[1].queue droppedPacketLengthsQueueOverflow:vector ETV
attr interpolationmode none
attr recordingmode vector
attr source packetLength(packetDropReasonIsQueueOverflow(packetDropped))
attr title "dropped packet lengths: queue overflow"
attr unit b
vector 297 BasicNetwork.r5.eth[1].queue flowQueueingTime:vector ETV
attr interpolationmode none
attr recordingmode vector
attr source queueingTime(demuxFlow(packetPulled))
attr title "flow queueing times"
attr unit s
vector 298 BasicNetwork.r5.eth[1].queue flowIncomingDataRate:vector ETV
attr interpolationmode linear
attr recordingmode vector
attr source throughput(flowPacketLength(demuxFlow(packetPushStarted)))
attr title "flow specific incoming data rate"
attr unit bps
vector 299 BasicNetwork.r5.eth[1].queue flowOutgoingDataRate:vector ETV
attr interpolationmode linear
attr recordingmode vector
attr source throughput(flowPacketLength(demuxFlow(packetPulled)))
attr title "flow specific outgoing data rate"
attr unit bps
vector 300 BasicNetwork.r5.eth[1].mac transmitting:vector ETV
attr interpolationmode sample-hold
attr recordingmode vector
attr source "count(transmissionStarted) - count(transmissionEnded)"
attr title "transmitting state"
attr type int
vector 301 BasicNetwork.r5.eth[1].mac throughput:vector ETV
attr interpolationmode linear
attr recordingmode vector
attr source throughput(transmissionEnded)
attr title throughput
attr unit bps
vector 302 BasicNetwork.r5.eth[1].mac utilization:vector ETV
attr interpolationmode linear
attr recordingmode vector
attr source "100 * utilization(count(transmissionStarted) - count(transmissionEnded))"
attr title utilization
attr unit %
vector 303 BasicNetwork.r5.eth[1].mac txPk:vector(packetBytes) ETV
attr interpolationmode none
attr recordingmode vector(packetBytes)
attr source packetSentToLower
attr title "packets transmitted, packetBytes"
vector 304 BasicNetwork.r5.eth[1].mac rxPkOk:vector(packetBytes) ETV
attr interpolationmode none
attr recordingmode vector(packetBytes)
attr source rxPkOk
attr title "packets received OK, packetBytes"
vector 305 BasicNetwork.r5.eth[1].mac passedUpPk:vector(packetBytes) ETV
attr interpolationmode none
attr recordingmode vector(packetBytes)
attr source packetSentToUpper
attr title "packets passed to higher layer, packetBytes"
vector 306 BasicNetwork.r5.eth[1].mac txPausePkUnits:vector ETV
attr interpolationmode none
attr recordingmode vector
attr title "pause units sent"
vector 307 BasicNetwork.r5.eth[1].mac rxPausePkUnits:vector ETV
attr interpolationmode none
attr recordingmode vector
attr title "pause units received"
vector 308 BasicNetwork.r5.eth[1].mac packetReceivedFromUpper:vector(packetBytes) ETV
attr interpolationmode none
attr recordingmode vector(packetBytes)
attr source packetReceivedFromUpper
attr title "packet bytes from higher layer, packetBytes"
vector 309 BasicNetwork.r5.eth[1].mac packetDropIncorrectlyReceived:vector(packetBytes) ETV
attr interpolationmode none
attr recordingmode vector(packetBytes)
attr source packetDropReasonIsIncorrectlyReceived(packetDropped)
attr title "packet drop: incorrectly received, packetBytes"
vector 310 BasicNetwork.r5.eth[1].mac packetDropInterfaceDown:vector(packetBytes) ETV
attr interpolationmode none
attr recordingmode vector(packetBytes)
attr source packetDropReasonIsInterfaceDown(packetDropped)
attr title "packet drop: interface down, packetBytes"
vector 311 BasicNetwork.r5.eth[1].mac packetDropNotAddressedToUs:vector(packetBytes) ETV
attr interpolationmode none
attr recordingmode vector(packetBytes)
attr source packetDropReasonIsNotAddressedToUs(packetDropped)
attr title "packet drop: not addressed to us, packetBytes"
vector 312 BasicNetwork.r5.eth[1] packetDropInterfaceDown:vector(packetBytes) ETV
attr interpolationmode none
attr recordingmode vector(packetBytes)
attr source packetDropReasonIsInterfaceDown(packetDropped)
attr title "packet drops: interface down, packetBytes"
vector 313 BasicNetwork.r5.eth[1] packetDropNoCarrier:vector(packetBytes) ETV
attr interpolationmode none
attr recordingmode vector(packetBytes)
attr source packetDropReasonIsNoCarrier(packetDropped)
attr title "packet drops: no carrier, packetBytes"
vector 314 BasicNetwork.r5.eth[2].queue queueLength:vector ETV
attr autoWarmupFilter false
attr interpolationmode sample-hold
attr recordingmode vector
attr source "warmup(atomic(constant0(packetPushEnded) + count(packetPushStarted) - count(packetPulled) - count(packetRemoved) - count(packetDropped)))"
attr title "queue length"
attr unit pk
vector 315 BasicNetwork.r5.eth[2].queue queueBitLength:vector ETV
attr autoWarmupFilter false
attr interpolationmode sample-hold
attr recordingmode vector
attr source "warmup(atomic(constant0(packetPushEnded) + sum(packetLength(packetPushStarted)) - sum(packetLength(packetPulled)) - sum(packetLength(packetRemoved)) - sum(packetLength(packetDropped))))"
attr title "queue bit length"
attr unit b
vector 316 BasicNetwork.r5.eth[2].queue queueingTime:vector ETV
attr interpolationmode none
attr recordingmode vector
attr source queueingTime(packetPulled)
attr title "queueing times"
attr unit s
vector 317 BasicNetwork.r5.eth[2].queue incomingPacketLengths:vector ETV
attr interpolationmode none
attr recordingmode vector
attr source packetLength(packetPushStarted)
attr title "incoming packet lengths"
attr unit b
vector 318 BasicNetwork.r5.eth[2].queue incomingDataRate:vector ETV
attr interpolationmode linear
attr recordingmode vector
attr source throughput(packetPushStarted)
attr title "incoming datarate"
attr unit bps
vector 319 BasicNetwork.r5.eth[2].queue outgoingPacketLengths:vector ETV
attr interpolationmode none
attr recordingmode vector
attr source packetLength(packetPulled)
attr title "outgoing packet lengths"
attr unit b
vector 320 BasicNetwork.r5.eth[2].queue outgoingDataRate:vector ETV
attr interpolationmode linear
attr recordingmode vector
attr source throughput(packetPulled)
attr title "outgoing datarate"
attr unit bps
vector 321 BasicNetwork.r5.eth[2].queue droppedPacketLengthsQueueOverflow:vector ETV
attr interpolationmode none
attr recordingmode vector
attr source packetLength(packetDropReasonIsQueueOverflow(packetDropped))
attr title "dropped packet lengths: queue overflow"
attr unit b
vector 322 BasicNetwork.r5.eth[2].queue flowQueueingTime:vector ETV
attr interpolationmode none
attr recordingmode vector
attr source queueingTime(demuxFlow(packetPulled))
attr title "flow queueing times"
attr unit s
vector 323 BasicNetwork.r5.eth[2].queue flowIncomingDataRate:vector ETV
attr interpolationmode linear
attr recordingmode vector
attr source throughput(flowPacketLength(demuxFlow(packetPushStarted)))
attr title "flow specific incoming data rate"
attr unit bps
vector 324 BasicNetwork.r5.eth[2].queue flowOutgoingDataRate:vector ETV
attr interpolationmode linear
attr recordingmode vector
attr source throughput(flowPacketLength(demuxFlow(packetPulled)))
attr title "flow specific outgoing data rate"
attr unit bps
vector 325 BasicNetwork.r5.eth[2].mac transmitting:vector ETV
attr interpolationmode sample-hold
attr recordingmode vector
attr source "count(transmissionStarted) - count(transmissionEnded)"
attr title "transmitting state"
attr type int
vector 326 BasicNetwork.r5.eth[2].mac throughput:vector ETV
attr interpolationmode linear
attr recordingmode vector
attr source throughput(transmissionEnded)
attr title throughput
attr unit bps
vector 327 BasicNetwork.r5.eth[2].mac utilization:vector ETV
attr interpolationmode linear
attr recordingmode vector
attr source "100 * utilization(count(transmissionStarted) - count(transmissionEnded))"
attr title utilization
attr unit %
vector 328 BasicNetwork.r5.eth[2].mac txPk:vector(packetBytes) ETV
attr interpolationmode none
attr recordingmode vector(packetBytes)
attr source packetSentToLower
attr title "packets transmitted, packetBytes"
[...]
240	1221	2.483268590423	0
241	1221	0.1	0
241	1221	0.2	0
241	1221	0.3	0
241	1221	0.4	0
241	1221	0.5	0
241	1221	0.6	0
241	1221	0.7	0
241	1221	0.8	0
241	1221	0.9	0
241	1221	1	0
241	1221	1.1	0
241	1221	1.2	0
241	1221	1.3	0
241	1221	1.4	0
241	1221	1.5	0
241	1221	1.6	0
241	1221	1.7	0
241	1221	1.8	0
241	1221	1.9	0
241	1221	2	0
241	1221	2.1	0
241	1221	2.2	0
241	1221	2.3	0
241	1221	2.4	0
241	1221	2.483268590423	0
243	1221	0.3	7200
243	1221	0.4	0
243	1221	0.5	0
243	1221	0.6	0
243	1221	0.7	0
243	1221	0.8	0
243	1221	0.9	0
243	1221	1	0
243	1221	1.1	0
243	1221	1.2	0
243	1221	1.3	0
243	1221	1.4	0
243	1221	1.5	0
243	1221	1.6	0
243	1221	1.7	0
243	1221	1.8	0
243	1221	1.9	0
243	1221	2	0
243	1221	2.1	0
243	1221	2.2	0
243	1221	2.3	0
243	1221	2.4	0
243	1221	2.483268590423	0
244	1221	0.3	0.072
244	1221	0.4	0
244	1221	0.5	0
244	1221	0.6	0
244	1221	0.7	0
244	1221	0.8	0
244	1221	0.9	0
244	1221	1	0
244	1221	1.1	0
244	1221	1.2	0
244	1221	1.3	0
244	1221	1.4	0
244	1221	1.5	0
244	1221	1.6	0
244	1221	1.7	0
244	1221	1.8	0
244	1221	1.9	0
244	1221	2	0
244	1221	2.1	0
244	1221	2.2	0
244	1221	2.3	0
244	1221	2.4	0
244	1221	2.483268590423	0
268	1221	0.2	6560
268	1221	0.3	0
268	1221	0.4	0
268	1221	0.5	0
268	1221	0.6	0
268	1221	0.7	0
268	1221	0.8	0
268	1221	0.9	0
268	1221	1	0
268	1221	1.1	0
268	1221	1.2	0
268	1221	1.3	0
268	1221	1.4	0
268	1221	1.5	0
268	1221	1.6	0
268	1221	1.7	0
268	1221	1.8	0
268	1221	1.9	0
268	1221	2	0
268	1221	2.1	0
268	1221	2.2	0
268	1221	2.3	0
268	1221	2.4	0
268	1221	2.483268590423	0
270	1221	0.2	6560
270	1221	0.3	0
270	1221	0.4	0
270	1221	0.5	0
270	1221	0.6	0
270	1221	0.7	0
270	1221	0.8	0
270	1221	0.9	0
270	1221	1	0
270	1221	1.1	0
270	1221	1.2	0
270	1221	1.3	0
270	1221	1.4	0
270	1221	1.5	0
270	1221	1.6	0
270	1221	1.7	0
270	1221	1.8	0
270	1221	1.9	0
270	1221	2	0
270	1221	2.1	0
270	1221	2.2	0
270	1221	2.3	0
270	1221	2.4	0
270	1221	2.483268590423	0
273	1221	0.1	0
273	1221	0.2	0
273	1221	0.3	0
273	1221	0.4	0
273	1221	0.5	0
273	1221	0.6	0
273	1221	0.7	0
273	1221	0.8	0
273	1221	0.9	0
273	1221	1	0
273	1221	1.1	0
273	1221	1.2	0
273	1221	1.3	0
273	1221	1.4	0
273	1221	1.5	0
273	1221	1.6	0
273	1221	1.7	0
273	1221	1.8	0
273	1221	1.9	0
273	1221	2	0
273	1221	2.1	0
273	1221	2.2	0
273	1221	2.3	0
273	1221	2.4	0
273	1221	2.483268590423	0
274	1221	0.1	0
274	1221	0.2	0
274	1221	0.3	0
274	1221	0.4	0
274	1221	0.5	0
274	1221	0.6	0
274	1221	0.7	0
274	1221	0.8	0
274	1221	0.9	0
274	1221	1	0
274	1221	1.1	0
274	1221	1.2	0
274	1221	1.3	0
274	1221	1.4	0
274	1221	1.5	0
274	1221	1.6	0
274	1221	1.7	0
274	1221	1.8	0
274	1221	1.9	0
274	1221	2	0
274	1221	2.1	0
274	1221	2.2	0
274	1221	2.3	0
274	1221	2.4	0
274	1221	2.483268590423	0
276	1221	0.2	7200
276	1221	0.3	0
276	1221	0.4	0
276	1221	0.5	0
276	1221	0.6	0
276	1221	0.7	0
276	1221	0.8	0
276	1221	0.9	0
276	1221	1	0
276	1221	1.1	0
276	1221	1.2	0
276	1221	1.3	0
276	1221	1.4	0
276	1221	1.5	0
276	1221	1.6	0
276	1221	1.7	0
276	1221	1.8	0
276	1221	1.9	0
276	1221	2	0
276	1221	2.1	0
276	1221	2.2	0
276	1221	2.3	0
276	1221	2.4	0
276	1221	2.483268590423	0
277	1221	0.2	0.072
277	1221	0.3	0
277	1221	0.4	0
277	1221	0.5	0
277	1221	0.6	0
277	1221	0.7	0
277	1221	0.8	0
277	1221	0.9	0
277	1221	1	0
277	1221	1.1	0
277	1221	1.2	0
277	1221	1.3	0
277	1221	1.4	0
277	1221	1.5	0
277	1221	1.6	0
277	1221	1.7	0
277	1221	1.8	0
277	1221	1.9	0
277	1221	2	0
277	1221	2.1	0
277	1221	2.2	0
277	1221	2.3	0
277	1221	2.4	0
277	1221	2.483268590423	0
293	1221	0.2	6560
293	1221	0.3	0
293	1221	0.4	0
293	1221	0.5	0
293	1221	0.6	0
293	1221	0.7	0
293	1221	0.8	0
293	1221	0.9	0
293	1221	1	0
293	1221	1.1	0
293	1221	1.2	0
293	1221	1.3	0
293	1221	1.4	0
293	1221	1.5	0
293	1221	1.6	0
293	1221	1.7	0
293	1221	1.8	0
293	1221	1.9	0
293	1221	2	0
293	1221	2.1	0
293	1221	2.2	0
293	1221	2.3	0
293	1221	2.4	0
293	1221	2.483268590423	0
295	1221	0.2	6560
295	1221	0.3	0
295	1221	0.4	0
295	1221	0.5	0
295	1221	0.6	0
295	1221	0.7	0
295	1221	0.8	0
295	1221	0.9	0
295	1221	1	0
295	1221	1.1	0
295	1221	1.2	0
295	1221	1.3	0
295	1221	1.4	0
295	1221	1.5	0
295	1221	1.6	0
295	1221	1.7	0
295	1221	1.8	0
295	1221	1.9	0
295	1221	2	0
295	1221	2.1	0
295	1221	2.2	0
295	1221	2.3	0
295	1221	2.4	0
295	1221	2.483268590423	0
298	1221	0.1	0
298	1221	0.2	0
298	1221	0.3	0
298	1221	0.4	0
298	1221	0.5	0
298	1221	0.6	0
298	1221	0.7	0
298	1221	0.8	0
298	1221	0.9	0
298	1221	1	0
298	1221	1.1	0
298	1221	1.2	0
298	1221	1.3	0
298	1221	1.4	0
298	1221	1.5	0
298	1221	1.6	0
298	1221	1.7	0
298	1221	1.8	0
298	1221	1.9	0
298	1221	2	0
298	1221	2.1	0
298	1221	2.2	0
298	1221	2.3	0
298	1221	2.4	0
298	1221	2.483268590423	0
299	1221	0.1	0
299	1221	0.2	0
299	1221	0.3	0
299	1221	0.4	0
299	1221	0.5	0
299	1221	0.6	0
299	1221	0.7	0
299	1221	0.8	0
299	1221	0.9	0
299	1221	1	0
299	1221	1.1	0
299	1221	1.2	0
299	1221	1.3	0
299	1221	1.4	0
299	1221	1.5	0
299	1221	1.6	0
299	1221	1.7	0
299	1221	1.8	0
299	1221	1.9	0
299	1221	2	0
299	1221	2.1	0
299	1221	2.2	0
299	1221	2.3	0
299	1221	2.4	0
299	1221	2.483268590423	0
301	1221	0.2	7200
301	1221	0.3	0
301	1221	0.4	0
301	1221	0.5	0
301	1221	0.6	0
301	1221	0.7	0
301	1221	0.8	0
301	1221	0.9	0
301	1221	1	0
301	1221	1.1	0
301	1221	1.2	0
301	1221	1.3	0
301	1221	1.4	0
301	1221	1.5	0
301	1221	1.6	0
301	1221	1.7	0
301	1221	1.8	0
301	1221	1.9	0
301	1221	2	0
301	1221	2.1	0
301	1221	2.2	0
301	1221	2.3	0
301	1221	2.4	0
301	1221	2.483268590423	0
302	1221	0.2	0.072
302	1221	0.3	0
302	1221	0.4	0
302	1221	0.5	0
302	1221	0.6	0
302	1221	0.7	0
302	1221	0.8	0
302	1221	0.9	0
302	1221	1	0
302	1221	1.1	0
302	1221	1.2	0
302	1221	1.3	0
302	1221	1.4	0
302	1221	1.5	0
302	1221	1.6	0
302	1221	1.7	0
302	1221	1.8	0
302	1221	1.9	0
302	1221	2	0
302	1221	2.1	0
302	1221	2.2	0
302	1221	2.3	0
302	1221	2.4	0
302	1221	2.483268590423	0
318	1221	0.2	6560
318	1221	0.3	0
318	1221	0.4	0
318	1221	0.5	0
318	1221	0.6	0
318	1221	0.7	0
318	1221	0.8	0
318	1221	0.9	0
318	1221	1	0
318	1221	1.1	0
318	1221	1.2	0
318	1221	1.3	0
318	1221	1.4	0
318	1221	1.5	0
318	1221	1.6	0
318	1221	1.7	0
318	1221	1.8	0
318	1221	1.9	0
318	1221	2	0
318	1221	2.1	0
318	1221	2.2	0
318	1221	2.3	0
318	1221	2.4	0
318	1221	2.483268590423	0
320	1221	0.2	6560
320	1221	0.3	0
320	1221	0.4	0
320	1221	0.5	0
320	1221	0.6	0
320	1221	0.7	0
320	1221	0.8	0
320	1221	0.9	0
320	1221	1	0
320	1221	1.1	0
320	1221	1.2	0
320	1221	1.3	0
320	1221	1.4	0
320	1221	1.5	0
320	1221	1.6	0
320	1221	1.7	0
320	1221	1.8	0
320	1221	1.9	0
320	1221	2	0
320	1221	2.1	0
320	1221	2.2	0
320	1221	2.3	0
320	1221	2.4	0
320	1221	2.483268590423	0
323	1221	0.1	0
323	1221	0.2	0
323	1221	0.3	0
323	1221	0.4	0
323	1221	0.5	0
323	1221	0.6	0
323	1221	0.7	0
323	1221	0.8	0
323	1221	0.9	0
323	1221	1	0
323	1221	1.1	0
323	1221	1.2	0
323	1221	1.3	0
323	1221	1.4	0
323	1221	1.5	0
323	1221	1.6	0
323	1221	1.7	0
323	1221	1.8	0
323	1221	1.9	0
323	1221	2	0
323	1221	2.1	0
323	1221	2.2	0
323	1221	2.3	0
323	1221	2.4	0
323	1221	2.483268590423	0
324	1221	0.1	0
324	1221	0.2	0
324	1221	0.3	0
324	1221	0.4	0
324	1221	0.5	0
324	1221	0.6	0
324	1221	0.7	0
324	1221	0.8	0
324	1221	0.9	0
324	1221	1	0
324	1221	1.1	0
324	1221	1.2	0
324	1221	1.3	0
324	1221	1.4	0
324	1221	1.5	0
324	1221	1.6	0
324	1221	1.7	0
324	1221	1.8	0
324	1221	1.9	0
324	1221	2	0
324	1221	2.1	0
324	1221	2.2	0
324	1221	2.3	0
324	1221	2.4	0
324	1221	2.483268590423	0
326	1221	0.2	7200
326	1221	0.3	0
326	1221	0.4	0
326	1221	0.5	0
326	1221	0.6	0
326	1221	0.7	0
326	1221	0.8	0
326	1221	0.9	0
326	1221	1	0
326	1221	1.1	0
326	1221	1.2	0
326	1221	1.3	0
326	1221	1.4	0
326	1221	1.5	0
326	1221	1.6	0
326	1221	1.7	0
326	1221	1.8	0
326	1221	1.9	0
326	1221	2	0
326	1221	2.1	0
326	1221	2.2	0
326	1221	2.3	0
326	1221	2.4	0
326	1221	2.483268590423	0
327	1221	0.2	0.072
327	1221	0.3	0
327	1221	0.4	0
327	1221	0.5	0
327	1221	0.6	0
327	1221	0.7	0
327	1221	0.8	0
327	1221	0.9	0
327	1221	1	0
327	1221	1.1	0
327	1221	1.2	0
327	1221	1.3	0
327	1221	1.4	0
327	1221	1.5	0
327	1221	1.6	0
327	1221	1.7	0
327	1221	1.8	0
327	1221	1.9	0
327	1221	2	0
327	1221	2.1	0
327	1221	2.2	0
327	1221	2.3	0
327	1221	2.4	0
327	1221	2.483268590423	0
351	1221	0.3	6560
351	1221	0.4	0
351	1221	0.5	0
351	1221	0.6	0
351	1221	0.7	0
351	1221	0.8	0
351	1221	0.9	0
351	1221	1	0
351	1221	1.1	0
351	1221	1.2	0
351	1221	1.3	0
351	1221	1.4	0
351	1221	1.5	0
351	1221	1.6	0
351	1221	1.7	0
351	1221	1.8	0
351	1221	1.9	0
351	1221	2	0
351	1221	2.1	0
351	1221	2.2	0
351	1221	2.3	0
351	1221	2.4	0
351	1221	2.483268590423	0
353	1221	0.3	6560
353	1221	0.4	0
353	1221	0.5	0
353	1221	0.6	0
353	1221	0.7	0
353	1221	0.8	0
353	1221	0.9	0
353	1221	1	0
353	1221	1.1	0
353	1221	1.2	0
353	1221	1.3	0
353	1221	1.4	0
353	1221	1.5	0
353	1221	1.6	0
353	1221	1.7	0
353	1221	1.8	0
353	1221	1.9	0
353	1221	2	0
353	1221	2.1	0
353	1221	2.2	0
353	1221	2.3	0
353	1221	2.4	0
353	1221	2.483268590423	0
356	1221	0.1	0
356	1221	0.2	0
356	1221	0.3	0
356	1221	0.4	0
356	1221	0.5	0
356	1221	0.6	0
356	1221	0.7	0
356	1221	0.8	0
356	1221	0.9	0
356	1221	1	0
356	1221	1.1	0
356	1221	1.2	0
356	1221	1.3	0
356	1221	1.4	0
356	1221	1.5	0
356	1221	1.6	0
356	1221	1.7	0
356	1221	1.8	0
356	1221	1.9	0
356	1221	2	0
356	1221	2.1	0
356	1221	2.2	0
356	1221	2.3	0
356	1221	2.4	0
356	1221	2.483268590423	0
357	1221	0.1	0
357	1221	0.2	0
357	1221	0.3	0
357	1221	0.4	0
357	1221	0.5	0
357	1221	0.6	0
357	1221	0.7	0
357	1221	0.8	0
357	1221	0.9	0
357	1221	1	0
357	1221	1.1	0
357	1221	1.2	0
357	1221	1.3	0
357	1221	1.4	0
357	1221	1.5	0
357	1221	1.6	0
357	1221	1.7	0
357	1221	1.8	0
357	1221	1.9	0
357	1221	2	0
357	1221	2.1	0
357	1221	2.2	0
357	1221	2.3	0
357	1221	2.4	0
357	1221	2.483268590423	0
359	1221	0.3	7200
359	1221	0.4	0
359	1221	0.5	0
359	1221	0.6	0
359	1221	0.7	0
359	1221	0.8	0
359	1221	0.9	0
359	1221	1	0
359	1221	1.1	0
359	1221	1.2	0
359	1221	1.3	0
359	1221	1.4	0
359	1221	1.5	0
359	1221	1.6	0
359	1221	1.7	0
359	1221	1.8	0
359	1221	1.9	0
359	1221	2	0
359	1221	2.1	0
359	1221	2.2	0
359	1221	2.3	0
359	1221	2.4	0
359	1221	2.483268590423	0
360	1221	0.3	0.072
360	1221	0.4	0
360	1221	0.5	0
360	1221	0.6	0
360	1221	0.7	0
360	1221	0.8	0
360	1221	0.9	0
360	1221	1	0
360	1221	1.1	0
360	1221	1.2	0
360	1221	1.3	0
360	1221	1.4	0
360	1221	1.5	0
360	1221	1.6	0
360	1221	1.7	0
360	1221	1.8	0
360	1221	1.9	0
360	1221	2	0
360	1221	2.1	0
360	1221	2.2	0
360	1221	2.3	0
360	1221	2.4	0
360	1221	2.483268590423	0
376	1221	0.3	6560
376	1221	0.4	0
376	1221	0.5	0
376	1221	0.6	0
376	1221	0.7	0
376	1221	0.8	0
376	1221	0.9	0
376	1221	1	0
376	1221	1.1	0
376	1221	1.2	0
376	1221	1.3	0
376	1221	1.4	0
376	1221	1.5	0
376	1221	1.6	0
376	1221	1.7	0
376	1221	1.8	0
376	1221	1.9	0
376	1221	2	0
376	1221	2.1	0
376	1221	2.2	0
376	1221	2.3	0
376	1221	2.4	0
376	1221	2.483268590423	0
378	1221	0.3	6560
378	1221	0.4	0
378	1221	0.5	0
378	1221	0.6	0
378	1221	0.7	0
378	1221	0.8	0
378	1221	0.9	0
378	1221	1	0
378	1221	1.1	0
378	1221	1.2	0
378	1221	1.3	0
378	1221	1.4	0
378	1221	1.5	0
378	1221	1.6	0
378	1221	1.7	0
378	1221	1.8	0
378	1221	1.9	0
378	1221	2	0
378	1221	2.1	0
378	1221	2.2	0
378	1221	2.3	0
378	1221	2.4	0
378	1221	2.483268590423	0
381	1221	0.1	0
381	1221	0.2	0
381	1221	0.3	0
381	1221	0.4	0
381	1221	0.5	0
381	1221	0.6	0
381	1221	0.7	0
381	1221	0.8	0
381	1221	0.9	0
381	1221	1	0
381	1221	1.1	0
381	1221	1.2	0
381	1221	1.3	0
381	1221	1.4	0
381	1221	1.5	0
381	1221	1.6	0
381	1221	1.7	0
381	1221	1.8	0
381	1221	1.9	0
381	1221	2	0
381	1221	2.1	0
381	1221	2.2	0
381	1221	2.3	0
381	1221	2.4	0
381	1221	2.483268590423	0
382	1221	0.1	0
382	1221	0.2	0
382	1221	0.3	0
382	1221	0.4	0
382	1221	0.5	0
382	1221	0.6	0
382	1221	0.7	0
382	1221	0.8	0
382	1221	0.9	0
382	1221	1	0
382	1221	1.1	0
382	1221	1.2	0
382	1221	1.3	0
382	1221	1.4	0
382	1221	1.5	0
382	1221	1.6	0
382	1221	1.7	0
382	1221	1.8	0
382	1221	1.9	0
382	1221	2	0
382	1221	2.1	0
382	1221	2.2	0
382	1221	2.3	0
382	1221	2.4	0
382	1221	2.483268590423	0
384	1221	0.3	7200
384	1221	0.4	0
384	1221	0.5	0
384	1221	0.6	0
384	1221	0.7	0
384	1221	0.8	0
384	1221	0.9	0
384	1221	1	0
384	1221	1.1	0
384	1221	1.2	0
384	1221	1.3	0
384	1221	1.4	0
384	1221	1.5	0
384	1221	1.6	0
384	1221	1.7	0
384	1221	1.8	0
384	1221	1.9	0
384	1221	2	0
384	1221	2.1	0
384	1221	2.2	0
384	1221	2.3	0
384	1221	2.4	0
384	1221	2.483268590423	0
385	1221	0.3	0.0072
385	1221	0.4	0
385	1221	0.5	0
385	1221	0.6	0
385	1221	0.7	0
385	1221	0.8	0
385	1221	0.9	0
385	1221	1	0
385	1221	1.1	0
385	1221	1.2	0
385	1221	1.3	0
385	1221	1.4	0
385	1221	1.5	0
385	1221	1.6	0
385	1221	1.7	0
385	1221	1.8	0
385	1221	1.9	0
385	1221	2	0
385	1221	2.1	0
385	1221	2.2	0
385	1221	2.3	0
385	1221	2.4	0
385	1221	2.483268590423	0
409	1221	2.1	7200
409	1221	2.2	0
409	1221	2.3	0
409	1221	2.4	0
409	1221	2.483268590423	0
411	1221	2.1	7200
411	1221	2.2	0
411	1221	2.3	0
411	1221	2.4	0
411	1221	2.483268590423	0
414	1221	0.1	0
414	1221	0.2	0
414	1221	0.3	0
414	1221	0.4	0
414	1221	0.5	0
414	1221	0.6	0
414	1221	0.7	0
414	1221	0.8	0
414	1221	0.9	0
414	1221	1	0
414	1221	1.1	0
414	1221	1.2	0
414	1221	1.3	0
414	1221	1.4	0
414	1221	1.5	0
414	1221	1.6	0
414	1221	1.7	0
414	1221	1.8	0
414	1221	1.9	0
414	1221	2	0
414	1221	2.1	0
414	1221	2.2	0
414	1221	2.3	0
414	1221	2.4	0
414	1221	2.483268590423	0
415	1221	0.1	0
415	1221	0.2	0
415	1221	0.3	0
415	1221	0.4	0
415	1221	0.5	0
415	1221	0.6	0
415	1221	0.7	0
415	1221	0.8	0
415	1221	0.9	0
415	1221	1	0
415	1221	1.1	0
415	1221	1.2	0
415	1221	1.3	0
415	1221	1.4	0
415	1221	1.5	0
415	1221	1.6	0
415	1221	1.7	0
415	1221	1.8	0
415	1221	1.9	0
415	1221	2	0
415	1221	2.1	0
415	1221	2.2	0
415	1221	2.3	0
415	1221	2.4	0
415	1221	2.483268590423	0
417	1221	2.1	7840
417	1221	2.2	0
417	1221	2.3	0
417	1221	2.4	0
417	1221	2.483268590423	0
418	1221	2.1	0.00784
418	1221	2.2	0
418	1221	2.3	0
418	1221	2.4	0
418	1221	2.483268590423	0
432	1221	0.1	0
432	1221	0.2	0
432	1221	0.3	0
432	1221	0.4	0
432	1221	0.5	0
432	1221	0.6	0
432	1221	0.7	0
432	1221	0.8	0
432	1221	0.9	0
432	1221	1	0
432	1221	1.1	0
432	1221	1.2	0
432	1221	1.3	0
432	1221	1.4	0
432	1221	1.5	0
432	1221	1.6	0
432	1221	1.7	0
432	1221	1.8	0
432	1221	1.9	0
432	1221	2	0
432	1221	2.1	0
432	1221	2.2	0
432	1221	2.3	0
432	1221	2.4	0
432	1221	2.483268590423	0
451	1221	2.483268590423	7109.5234949057
453	1221	2.483268590423	7109.5234949057
456	1221	0.1	0
456	1221	0.2	0
456	1221	0.3	0
456	1221	0.4	0
456	1221	0.5	0
456	1221	0.6	0
456	1221	0.7	0
456	1221	0.8	0
456	1221	0.9	0
456	1221	1	0
456	1221	1.1	0
456	1221	1.2	0
456	1221	1.3	0
456	1221	1.4	0
456	1221	1.5	0
456	1221	1.6	0
456	1221	1.7	0
456	1221	1.8	0
456	1221	1.9	0
456	1221	2	0
456	1221	2.1	0
456	1221	2.2	0
456	1221	2.3	0
456	1221	2.4	0
456	1221	2.483268590423	0
457	1221	0.1	0
457	1221	0.2	0
457	1221	0.3	0
457	1221	0.4	0
457	1221	0.5	0
457	1221	0.6	0
457	1221	0.7	0
457	1221	0.8	0
457	1221	0.9	0
457	1221	1	0
457	1221	1.1	0
457	1221	1.2	0
457	1221	1.3	0
457	1221	1.4	0
457	1221	1.5	0
457	1221	1.6	0
457	1221	1.7	0
457	1221	1.8	0
457	1221	1.9	0
457	1221	2	0
457	1221	2.1	0
457	1221	2.2	0
457	1221	2.3	0
457	1221	2.4	0
457	1221	2.483268590423	0
459	1221	2.483268590423	7878.1206294901
460	1221	2.483268590423	0.0078781206294901
474	1221	2.483268590423	871589.15061871
480	1221	0.1	0
480	1221	0.2	0
480	1221	0.3	0
480	1221	0.4	0
480	1221	0.5	0
480	1221	0.6	0
480	1221	0.7	0
480	1221	0.8	0
480	1221	0.9	0
480	1221	1	0
480	1221	1.1	0
480	1221	1.2	0
480	1221	1.3	0
480	1221	1.4	0
480	1221	1.5	0
480	1221	1.6	0
480	1221	1.7	0
480	1221	1.8	0
480	1221	1.9	0
480	1221	2	0
480	1221	2.1	0
480	1221	2.2	0
480	1221	2.3	0
480	1221	2.4	0
480	1221	2.483268590423	0
495	1221	0.8	6560
495	1221	0.9	0
495	1221	1	0
495	1221	1.1	0
495	1221	1.2	0
495	1221	1.3	0
495	1221	1.4	0
495	1221	1.5	0
495	1221	1.6	0
495	1221	1.7	0
495	1221	1.8	0
495	1221	1.9	0
495	1221	2	0
495	1221	2.1	0
495	1221	2.2	0
495	1221	2.3	0
495	1221	2.4	0
495	1221	2.483268590423	0
497	1221	0.8	6560
497	1221	0.9	0
497	1221	1	0
497	1221	1.1	0
497	1221	1.2	0
497	1221	1.3	0
497	1221	1.4	0
497	1221	1.5	0
497	1221	1.6	0
497	1221	1.7	0
497	1221	1.8	0
497	1221	1.9	0
497	1221	2	0
497	1221	2.1	0
497	1221	2.2	0
497	1221	2.3	0
497	1221	2.4	0
497	1221	2.483268590423	0
500	1221	0.1	0
500	1221	0.2	0
500	1221	0.3	0
500	1221	0.4	0
500	1221	0.5	0
500	1221	0.6	0
500	1221	0.7	0
500	1221	0.8	0
500	1221	0.9	0
500	1221	1	0
500	1221	1.1	0
500	1221	1.2	0
500	1221	1.3	0
500	1221	1.4	0
500	1221	1.5	0
500	1221	1.6	0
500	1221	1.7	0
500	1221	1.8	0
500	1221	1.9	0
500	1221	2	0
500	1221	2.1	0
500	1221	2.2	0
500	1221	2.3	0
500	1221	2.4	0
500	1221	2.483268590423	0
501	1221	0.1	0
501	1221	0.2	0
501	1221	0.3	0
501	1221	0.4	0
501	1221	0.5	0
501	1221	0.6	0
501	1221	0.7	0
501	1221	0.8	0
501	1221	0.9	0
501	1221	1	0
501	1221	1.1	0
501	1221	1.2	0
501	1221	1.3	0
501	1221	1.4	0
501	1221	1.5	0
501	1221	1.6	0
501	1221	1.7	0
501	1221	1.8	0
501	1221	1.9	0
501	1221	2	0
501	1221	2.1	0
501	1221	2.2	0
501	1221	2.3	0
501	1221	2.4	0
501	1221	2.483268590423	0
503	1221	0.8	7200
503	1221	0.9	0
503	1221	1	0
503	1221	1.1	0
503	1221	1.2	0
503	1221	1.3	0
503	1221	1.4	0
503	1221	1.5	0
503	1221	1.6	0
503	1221	1.7	0
503	1221	1.8	0
503	1221	1.9	0
503	1221	2	0
503	1221	2.1	0
503	1221	2.2	0
503	1221	2.3	0
503	1221	2.4	0
503	1221	2.483268590423	0
504	1221	0.8	0.0072
504	1221	0.9	0
504	1221	1	0
504	1221	1.1	0
504	1221	1.2	0
504	1221	1.3	0
504	1221	1.4	0
504	1221	1.5	0
504	1221	1.6	0
504	1221	1.7	0
504	1221	1.8	0
504	1221	1.9	0
504	1221	2	0
504	1221	2.1	0
504	1221	2.2	0
504	1221	2.3	0
504	1221	2.4	0
504	1221	2.483268590423	0
518	1221	0.1	0
518	1221	0.2	0
518	1221	0.3	0
518	1221	0.4	0
518	1221	0.5	0
518	1221	0.6	0
518	1221	0.7	0
518	1221	0.8	0
518	1221	0.9	0
518	1221	1	0
518	1221	1.1	0
518	1221	1.2	0
518	1221	1.3	0
518	1221	1.4	0
518	1221	1.5	0
518	1221	1.6	0
518	1221	1.7	0
518	1221	1.8	0
518	1221	1.9	0
518	1221	2	0
518	1221	2.1	0
518	1221	2.2	0
518	1221	2.3	0
518	1221	2.4	0
518	1221	2.483268590423	0
536	1221	0.8	6560
536	1221	0.9	0
536	1221	1	0
536	1221	1.1	0
536	1221	1.2	0
536	1221	1.3	0
536	1221	1.4	0
536	1221	1.5	0
536	1221	1.6	0
536	1221	1.7	0
536	1221	1.8	0
536	1221	1.9	0
536	1221	2	0
536	1221	2.1	0
536	1221	2.2	0
536	1221	2.3	0
536	1221	2.4	0
536	1221	2.483268590423	0
538	1221	0.8	6560
538	1221	0.9	0
538	1221	1	0
538	1221	1.1	0
538	1221	1.2	0
538	1221	1.3	0
538	1221	1.4	0
538	1221	1.5	0
538	1221	1.6	0
538	1221	1.7	0
538	1221	1.8	0
538	1221	1.9	0
538	1221	2	0
538	1221	2.1	0
538	1221	2.2	0
538	1221	2.3	0
538	1221	2.4	0
538	1221	2.483268590423	0
541	1221	0.1	0
541	1221	0.2	0
541	1221	0.3	0
541	1221	0.4	0
541	1221	0.5	0
541	1221	0.6	0
541	1221	0.7	0
541	1221	0.8	0
541	1221	0.9	0
541	1221	1	0
541	1221	1.1	0
541	1221	1.2	0
541	1221	1.3	0
541	1221	1.4	0
541	1221	1.5	0
541	1221	1.6	0
541	1221	1.7	0
541	1221	1.8	0
541	1221	1.9	0
541	1221	2	0
541	1221	2.1	0
541	1221	2.2	0
541	1221	2.3	0
541	1221	2.4	0
541	1221	2.483268590423	0
542	1221	0.1	0
542	1221	0.2	0
542	1221	0.3	0
542	1221	0.4	0
542	1221	0.5	0
542	1221	0.6	0
542	1221	0.7	0
542	1221	0.8	0
542	1221	0.9	0
542	1221	1	0
542	1221	1.1	0
542	1221	1.2	0
542	1221	1.3	0
542	1221	1.4	0
542	1221	1.5	0
542	1221	1.6	0
542	1221	1.7	0
542	1221	1.8	0
542	1221	1.9	0
542	1221	2	0
542	1221	2.1	0
542	1221	2.2	0
542	1221	2.3	0
542	1221	2.4	0
542	1221	2.483268590423	0
544	1221	0.8	7200
544	1221	0.9	0
544	1221	1	0
544	1221	1.1	0
544	1221	1.2	0
544	1221	1.3	0
544	1221	1.4	0
544	1221	1.5	0
544	1221	1.6	0
544	1221	1.7	0
544	1221	1.8	0
544	1221	1.9	0
544	1221	2	0
544	1221	2.1	0
544	1221	2.2	0
544	1221	2.3	0
544	1221	2.4	0
544	1221	2.483268590423	0
545	1221	0.8	0.0072
545	1221	0.9	0
545	1221	1	0
545	1221	1.1	0
545	1221	1.2	0
545	1221	1.3	0
545	1221	1.4	0
545	1221	1.5	0
545	1221	1.6	0
545	1221	1.7	0
545	1221	1.8	0
545	1221	1.9	0
545	1221	2	0
545	1221	2.1	0
545	1221	2.2	0
545	1221	2.3	0
545	1221	2.4	0
545	1221	2.483268590423	0
559	1221	0.1	0
559	1221	0.2	0
559	1221	0.3	0
559	1221	0.4	0
559	1221	0.5	0
559	1221	0.6	0
559	1221	0.7	0
559	1221	0.8	0
559	1221	0.9	0
559	1221	1	0
559	1221	1.1	0
559	1221	1.2	0
559	1221	1.3	0
559	1221	1.4	0
559	1221	1.5	0
559	1221	1.6	0
559	1221	1.7	0
559	1221	1.8	0
559	1221	1.9	0
559	1221	2	0
559	1221	2.1	0
559	1221	2.2	0
559	1221	2.3	0
559	1221	2.4	0
559	1221	2.483268590423	0
565	1221	0.1	0
565	1221	0.2	0
565	1221	0.3	0
565	1221	0.4	0
565	1221	0.5	0
565	1221	0.6	0
565	1221	0.7	0
565	1221	0.8	0
565	1221	0.9	0
565	1221	1	0
565	1221	1.1	0
565	1221	1.2	0
565	1221	1.3	0
565	1221	1.4	0
565	1221	1.5	0
565	1221	1.6	0
565	1221	1.7	0
565	1221	1.8	0
565	1221	1.9	0
565	1221	2	0
565	1221	2.1	0
565	1221	2.2	0
565	1221	2.3	0
565	1221	2.4	0
565	1221	2.483268590423	0

