version 3
run TCP_Congestion_1Mbps-0-20260412-17:55:13-14681
attr configname TCP_Congestion_1Mbps
attr datetime 20260412-17:55:13
attr datetimef 20260412-175513
attr experiment TCP_Congestion_1Mbps
attr inifile omnetpp.ini
attr iterationvars ""
attr iterationvarsd ""
attr iterationvarsf ""
attr measurement ""
attr network src.BasicNetwork
attr processid 14681
attr repetition 0
attr replication #0
attr resultdir results
attr runnumber 0
attr seedset 0
config image-path ../inet/images
config extends Part_II_Base
config description "TCP Congestion: Bottleneck reduced to 1 Mbps (severe congestion)"
config **.tcp.cwnd:vector true
config **.tcp.rtt:vector true
config **.tcp.sndNxt:vector true
config **.tcp.sndUna:vector true
config **.r2.eth[2].datarate 1Mbps
config description "Part II Foundation: TCP/UDP apps for transport protocol testing"
config extends RIPng
config *.client1.numApps 1
config *.client1.app[0].typename TcpSessionApp
config *.client1.app[0].connectAddress "\"server1\""
config *.client1.app[0].connectPort 1000
config *.client1.app[0].tOpen 1s
config *.client1.app[0].tSend 2s
config *.client1.app[0].tClose 90s
config *.client1.app[0].sendBytes 10MB
config *.server1.numApps 1
config *.server1.app[0].typename TcpSinkApp
config *.server1.app[0].localPort 1000
config *.client2.numApps 1
config *.client2.app[0].typename UdpBasicApp
config *.client2.app[0].destAddresses "\"server2\""
config *.client2.app[0].destPort 2000
config *.client2.app[0].messageLength 1000B
config *.client2.app[0].sendInterval 0.01s
config *.server2.numApps 1
config *.server2.app[0].typename UdpSink
config *.server2.app[0].localPort 2000
config **.tcp.cwnd:vector true
config **.tcp.rtt:vector true
config description "Dynamic routing with RIPng (Distance-Vector, IPv6)"
config *.configurator.addStaticRoutes false
config *.configurator.addDefaultRoutes false
config **.r[*].hasRip true
config **.r[*].rip.mode "\"RIPng\""
config **.r[*].rip.updateInterval 30s
config **.r[*].rip.routeExpiryTime 180s
config **.r[*].rip.routePurgeTime 120s
config network src.BasicNetwork
config sim-time-limit 100s
config seed-set 0
config output-scalar-file results/TCP_Congestion_1Mbps-0.sca
config output-vector-file results/TCP_Congestion_1Mbps-0.vec
config **.eth[*].queue.queueLength:vector true
config **.udpApp[*].rcvdPk:vector true
config *.configurator.addStaticRoutes true
config *.configurator.addDefaultRoutes true
config *.configurator.addSubnetRoutes true
config **.hasIpv6 true
config **.hasIpv4 false
config **.tcp.typename Tcp
config **.tcp.tcpAlgorithmClass "\"TcpReno\""

par BasicNetwork.client1.ethg$o[0].channel typename "\"inet.node.ethernet.EthernetLink\""
par BasicNetwork.client1.ethg$o[0].channel disabled false
attr mutable ""
par BasicNetwork.client1.ethg$o[0].channel delay 0.002s
attr mutable ""
attr unit s
par BasicNetwork.client1.ethg$o[0].channel datarate 1e+08bps
attr mutable ""
attr unit bps
par BasicNetwork.client1.ethg$o[0].channel ber 0
attr mutable ""
par BasicNetwork.client1.ethg$o[0].channel per 0
attr mutable ""
par BasicNetwork.client1.ethg$o[0].channel enabledLineStyle "\"solid\""
par BasicNetwork.client1.ethg$o[0].channel disabledLineStyle "\"dashed\""
par BasicNetwork.client1.ethg$o[0].channel disabledIcon "\"status/cross\""
par BasicNetwork.client1.ethg$o[0].channel length 10m
attr unit m
par BasicNetwork.r1.ethg$o[0].channel typename "\"inet.node.ethernet.EthernetLink\""
par BasicNetwork.r1.ethg$o[0].channel disabled false
attr mutable ""
par BasicNetwork.r1.ethg$o[0].channel delay 0.002s
attr mutable ""
attr unit s
par BasicNetwork.r1.ethg$o[0].channel datarate 1e+08bps
attr mutable ""
attr unit bps
par BasicNetwork.r1.ethg$o[0].channel ber 0
attr mutable ""
par BasicNetwork.r1.ethg$o[0].channel per 0
attr mutable ""
par BasicNetwork.r1.ethg$o[0].channel enabledLineStyle "\"solid\""
par BasicNetwork.r1.ethg$o[0].channel disabledLineStyle "\"dashed\""
par BasicNetwork.r1.ethg$o[0].channel disabledIcon "\"status/cross\""
par BasicNetwork.r1.ethg$o[0].channel length 10m
attr unit m
par BasicNetwork.client2.ethg$o[0].channel typename "\"inet.node.ethernet.EthernetLink\""
par BasicNetwork.client2.ethg$o[0].channel disabled false
attr mutable ""
par BasicNetwork.client2.ethg$o[0].channel delay 0.002s
attr mutable ""
attr unit s
par BasicNetwork.client2.ethg$o[0].channel datarate 1e+08bps
attr mutable ""
attr unit bps
par BasicNetwork.client2.ethg$o[0].channel ber 0
attr mutable ""
par BasicNetwork.client2.ethg$o[0].channel per 0
attr mutable ""
par BasicNetwork.client2.ethg$o[0].channel enabledLineStyle "\"solid\""
par BasicNetwork.client2.ethg$o[0].channel disabledLineStyle "\"dashed\""
par BasicNetwork.client2.ethg$o[0].channel disabledIcon "\"status/cross\""
par BasicNetwork.client2.ethg$o[0].channel length 10m
attr unit m
par BasicNetwork.r4.ethg$o[0].channel typename "\"inet.node.ethernet.EthernetLink\""
par BasicNetwork.r4.ethg$o[0].channel disabled false
attr mutable ""
par BasicNetwork.r4.ethg$o[0].channel delay 0.002s
attr mutable ""
attr unit s
par BasicNetwork.r4.ethg$o[0].channel datarate 1e+08bps
attr mutable ""
attr unit bps
par BasicNetwork.r4.ethg$o[0].channel ber 0
attr mutable ""
par BasicNetwork.r4.ethg$o[0].channel per 0
attr mutable ""
par BasicNetwork.r4.ethg$o[0].channel enabledLineStyle "\"solid\""
par BasicNetwork.r4.ethg$o[0].channel disabledLineStyle "\"dashed\""
par BasicNetwork.r4.ethg$o[0].channel disabledIcon "\"status/cross\""
par BasicNetwork.r4.ethg$o[0].channel length 10m
attr unit m
par BasicNetwork.r1.ethg$o[1].channel typename "\"inet.node.ethernet.EthernetLink\""
par BasicNetwork.r1.ethg$o[1].channel disabled false
attr mutable ""
par BasicNetwork.r1.ethg$o[1].channel delay 0.01s
attr mutable ""
attr unit s
par BasicNetwork.r1.ethg$o[1].channel datarate 1e+07bps
attr mutable ""
attr unit bps
par BasicNetwork.r1.ethg$o[1].channel ber 0
attr mutable ""
par BasicNetwork.r1.ethg$o[1].channel per 0
attr mutable ""
par BasicNetwork.r1.ethg$o[1].channel enabledLineStyle "\"solid\""
par BasicNetwork.r1.ethg$o[1].channel disabledLineStyle "\"dashed\""
par BasicNetwork.r1.ethg$o[1].channel disabledIcon "\"status/cross\""
par BasicNetwork.r1.ethg$o[1].channel length 10m
attr unit m
par BasicNetwork.r2.ethg$o[0].channel typename "\"inet.node.ethernet.EthernetLink\""
par BasicNetwork.r2.ethg$o[0].channel disabled false
attr mutable ""
par BasicNetwork.r2.ethg$o[0].channel delay 0.01s
attr mutable ""
attr unit s
par BasicNetwork.r2.ethg$o[0].channel datarate 1e+07bps
attr mutable ""
attr unit bps
par BasicNetwork.r2.ethg$o[0].channel ber 0
attr mutable ""
par BasicNetwork.r2.ethg$o[0].channel per 0
attr mutable ""
par BasicNetwork.r2.ethg$o[0].channel enabledLineStyle "\"solid\""
par BasicNetwork.r2.ethg$o[0].channel disabledLineStyle "\"dashed\""
par BasicNetwork.r2.ethg$o[0].channel disabledIcon "\"status/cross\""
par BasicNetwork.r2.ethg$o[0].channel length 10m
attr unit m
par BasicNetwork.r2.ethg$o[1].channel typename "\"inet.node.ethernet.EthernetLink\""
par BasicNetwork.r2.ethg$o[1].channel disabled false
attr mutable ""
par BasicNetwork.r2.ethg$o[1].channel delay 0.01s
attr mutable ""
attr unit s
par BasicNetwork.r2.ethg$o[1].channel datarate 1e+07bps
attr mutable ""
attr unit bps
par BasicNetwork.r2.ethg$o[1].channel ber 0
attr mutable ""
par BasicNetwork.r2.ethg$o[1].channel per 0
attr mutable ""
par BasicNetwork.r2.ethg$o[1].channel enabledLineStyle "\"solid\""
par BasicNetwork.r2.ethg$o[1].channel disabledLineStyle "\"dashed\""
par BasicNetwork.r2.ethg$o[1].channel disabledIcon "\"status/cross\""
par BasicNetwork.r2.ethg$o[1].channel length 10m
attr unit m
par BasicNetwork.r3.ethg$o[0].channel typename "\"inet.node.ethernet.EthernetLink\""
par BasicNetwork.r3.ethg$o[0].channel disabled false
attr mutable ""
par BasicNetwork.r3.ethg$o[0].channel delay 0.01s
attr mutable ""
attr unit s
par BasicNetwork.r3.ethg$o[0].channel datarate 1e+07bps
attr mutable ""
attr unit bps
par BasicNetwork.r3.ethg$o[0].channel ber 0
attr mutable ""
par BasicNetwork.r3.ethg$o[0].channel per 0
attr mutable ""
par BasicNetwork.r3.ethg$o[0].channel enabledLineStyle "\"solid\""
par BasicNetwork.r3.ethg$o[0].channel disabledLineStyle "\"dashed\""
par BasicNetwork.r3.ethg$o[0].channel disabledIcon "\"status/cross\""
par BasicNetwork.r3.ethg$o[0].channel length 10m
attr unit m
par BasicNetwork.r4.ethg$o[1].channel typename "\"inet.node.ethernet.EthernetLink\""
par BasicNetwork.r4.ethg$o[1].channel disabled false
attr mutable ""
par BasicNetwork.r4.ethg$o[1].channel delay 0.01s
attr mutable ""
attr unit s
par BasicNetwork.r4.ethg$o[1].channel datarate 1e+07bps
attr mutable ""
attr unit bps
par BasicNetwork.r4.ethg$o[1].channel ber 0
attr mutable ""
par BasicNetwork.r4.ethg$o[1].channel per 0
attr mutable ""
par BasicNetwork.r4.ethg$o[1].channel enabledLineStyle "\"solid\""
par BasicNetwork.r4.ethg$o[1].channel disabledLineStyle "\"dashed\""
par BasicNetwork.r4.ethg$o[1].channel disabledIcon "\"status/cross\""
par BasicNetwork.r4.ethg$o[1].channel length 10m
attr unit m
par BasicNetwork.r5.ethg$o[0].channel typename "\"inet.node.ethernet.EthernetLink\""
par BasicNetwork.r5.ethg$o[0].channel disabled false
attr mutable ""
par BasicNetwork.r5.ethg$o[0].channel delay 0.01s
attr mutable ""
attr unit s
par BasicNetwork.r5.ethg$o[0].channel datarate 1e+07bps
attr mutable ""
attr unit bps
par BasicNetwork.r5.ethg$o[0].channel ber 0
attr mutable ""
par BasicNetwork.r5.ethg$o[0].channel per 0
attr mutable ""
par BasicNetwork.r5.ethg$o[0].channel enabledLineStyle "\"solid\""
par BasicNetwork.r5.ethg$o[0].channel disabledLineStyle "\"dashed\""
par BasicNetwork.r5.ethg$o[0].channel disabledIcon "\"status/cross\""
par BasicNetwork.r5.ethg$o[0].channel length 10m
attr unit m
par BasicNetwork.r5.ethg$o[1].channel typename "\"inet.node.ethernet.EthernetLink\""
par BasicNetwork.r5.ethg$o[1].channel disabled false
attr mutable ""
par BasicNetwork.r5.ethg$o[1].channel delay 0.01s
attr mutable ""
attr unit s
par BasicNetwork.r5.ethg$o[1].channel datarate 1e+07bps
attr mutable ""
attr unit bps
par BasicNetwork.r5.ethg$o[1].channel ber 0
attr mutable ""
par BasicNetwork.r5.ethg$o[1].channel per 0
attr mutable ""
par BasicNetwork.r5.ethg$o[1].channel enabledLineStyle "\"solid\""
par BasicNetwork.r5.ethg$o[1].channel disabledLineStyle "\"dashed\""
par BasicNetwork.r5.ethg$o[1].channel disabledIcon "\"status/cross\""
par BasicNetwork.r5.ethg$o[1].channel length 10m
attr unit m
par BasicNetwork.r6.ethg$o[0].channel typename "\"inet.node.ethernet.EthernetLink\""
par BasicNetwork.r6.ethg$o[0].channel disabled false
attr mutable ""
par BasicNetwork.r6.ethg$o[0].channel delay 0.01s
attr mutable ""
attr unit s
par BasicNetwork.r6.ethg$o[0].channel datarate 1e+07bps
attr mutable ""
attr unit bps
par BasicNetwork.r6.ethg$o[0].channel ber 0
attr mutable ""
par BasicNetwork.r6.ethg$o[0].channel per 0
attr mutable ""
par BasicNetwork.r6.ethg$o[0].channel enabledLineStyle "\"solid\""
par BasicNetwork.r6.ethg$o[0].channel disabledLineStyle "\"dashed\""
par BasicNetwork.r6.ethg$o[0].channel disabledIcon "\"status/cross\""
par BasicNetwork.r6.ethg$o[0].channel length 10m
attr unit m
par BasicNetwork.r2.ethg$o[2].channel typename "\"inet.node.ethernet.EthernetLink\""
par BasicNetwork.r2.ethg$o[2].channel disabled false
attr mutable ""
par BasicNetwork.r2.ethg$o[2].channel delay 0.02s
attr mutable ""
attr unit s
par BasicNetwork.r2.ethg$o[2].channel datarate 1e+07bps
attr mutable ""
attr unit bps
par BasicNetwork.r2.ethg$o[2].channel ber 0
attr mutable ""
par BasicNetwork.r2.ethg$o[2].channel per 0
attr mutable ""
par BasicNetwork.r2.ethg$o[2].channel enabledLineStyle "\"solid\""
par BasicNetwork.r2.ethg$o[2].channel disabledLineStyle "\"dashed\""
par BasicNetwork.r2.ethg$o[2].channel disabledIcon "\"status/cross\""
par BasicNetwork.r2.ethg$o[2].channel length 10m
attr unit m
par BasicNetwork.r5.ethg$o[2].channel typename "\"inet.node.ethernet.EthernetLink\""
par BasicNetwork.r5.ethg$o[2].channel disabled false
attr mutable ""
par BasicNetwork.r5.ethg$o[2].channel delay 0.02s
attr mutable ""
attr unit s
par BasicNetwork.r5.ethg$o[2].channel datarate 1e+07bps
attr mutable ""
attr unit bps
par BasicNetwork.r5.ethg$o[2].channel ber 0
attr mutable ""
par BasicNetwork.r5.ethg$o[2].channel per 0
attr mutable ""
par BasicNetwork.r5.ethg$o[2].channel enabledLineStyle "\"solid\""
par BasicNetwork.r5.ethg$o[2].channel disabledLineStyle "\"dashed\""
par BasicNetwork.r5.ethg$o[2].channel disabledIcon "\"status/cross\""
par BasicNetwork.r5.ethg$o[2].channel length 10m
attr unit m
par BasicNetwork.r3.ethg$o[1].channel typename "\"inet.node.ethernet.EthernetLink\""
par BasicNetwork.r3.ethg$o[1].channel disabled false
attr mutable ""
par BasicNetwork.r3.ethg$o[1].channel delay 0.002s
attr mutable ""
attr unit s
par BasicNetwork.r3.ethg$o[1].channel datarate 1e+08bps
attr mutable ""
attr unit bps
par BasicNetwork.r3.ethg$o[1].channel ber 0
attr mutable ""
par BasicNetwork.r3.ethg$o[1].channel per 0
attr mutable ""
par BasicNetwork.r3.ethg$o[1].channel enabledLineStyle "\"solid\""
par BasicNetwork.r3.ethg$o[1].channel disabledLineStyle "\"dashed\""
par BasicNetwork.r3.ethg$o[1].channel disabledIcon "\"status/cross\""
par BasicNetwork.r3.ethg$o[1].channel length 10m
attr unit m
par BasicNetwork.server1.ethg$o[0].channel typename "\"inet.node.ethernet.EthernetLink\""
par BasicNetwork.server1.ethg$o[0].channel disabled false
attr mutable ""
par BasicNetwork.server1.ethg$o[0].channel delay 0.002s
attr mutable ""
attr unit s
par BasicNetwork.server1.ethg$o[0].channel datarate 1e+08bps
attr mutable ""
attr unit bps
par BasicNetwork.server1.ethg$o[0].channel ber 0
attr mutable ""
par BasicNetwork.server1.ethg$o[0].channel per 0
attr mutable ""
par BasicNetwork.server1.ethg$o[0].channel enabledLineStyle "\"solid\""
par BasicNetwork.server1.ethg$o[0].channel disabledLineStyle "\"dashed\""
par BasicNetwork.server1.ethg$o[0].channel disabledIcon "\"status/cross\""
par BasicNetwork.server1.ethg$o[0].channel length 10m
attr unit m
par BasicNetwork.r6.ethg$o[1].channel typename "\"inet.node.ethernet.EthernetLink\""
par BasicNetwork.r6.ethg$o[1].channel disabled false
attr mutable ""
par BasicNetwork.r6.ethg$o[1].channel delay 0.002s
attr mutable ""
attr unit s
par BasicNetwork.r6.ethg$o[1].channel datarate 1e+08bps
attr mutable ""
attr unit bps
par BasicNetwork.r6.ethg$o[1].channel ber 0
attr mutable ""
par BasicNetwork.r6.ethg$o[1].channel per 0
attr mutable ""
par BasicNetwork.r6.ethg$o[1].channel enabledLineStyle "\"solid\""
par BasicNetwork.r6.ethg$o[1].channel disabledLineStyle "\"dashed\""
par BasicNetwork.r6.ethg$o[1].channel disabledIcon "\"status/cross\""
par BasicNetwork.r6.ethg$o[1].channel length 10m
attr unit m
par BasicNetwork.server2.ethg$o[0].channel typename "\"inet.node.ethernet.EthernetLink\""
par BasicNetwork.server2.ethg$o[0].channel disabled false
attr mutable ""
par BasicNetwork.server2.ethg$o[0].channel delay 0.002s
attr mutable ""
attr unit s
par BasicNetwork.server2.ethg$o[0].channel datarate 1e+08bps
attr mutable ""
attr unit bps
par BasicNetwork.server2.ethg$o[0].channel ber 0
attr mutable ""
par BasicNetwork.server2.ethg$o[0].channel per 0
attr mutable ""
par BasicNetwork.server2.ethg$o[0].channel enabledLineStyle "\"solid\""
par BasicNetwork.server2.ethg$o[0].channel disabledLineStyle "\"dashed\""
par BasicNetwork.server2.ethg$o[0].channel disabledIcon "\"status/cross\""
par BasicNetwork.server2.ethg$o[0].channel length 10m
attr unit m
par BasicNetwork.configurator typename "\"inet.networklayer.configurator.ipv4.Ipv4NetworkConfigurator\""
par BasicNetwork.configurator displayStringTextFormat "\"\""
attr mutable ""
par BasicNetwork.configurator minLinkWeight 0.001
par BasicNetwork.configurator configureIsolatedNetworksSeparatly false
par BasicNetwork.configurator config "<config>...</config> at content:1"
par BasicNetwork.configurator assignAddresses true
par BasicNetwork.configurator assignUniqueAddresses true
par BasicNetwork.configurator assignDisjunctSubnetAddresses true
par BasicNetwork.configurator addStaticRoutes false
par BasicNetwork.configurator addDefaultRoutes false
par BasicNetwork.configurator addSubnetRoutes true
par BasicNetwork.configurator addDirectRoutes true
par BasicNetwork.configurator optimizeRoutes true
par BasicNetwork.configurator updateRoutes false
par BasicNetwork.configurator dumpTopology false
par BasicNetwork.configurator dumpLinks false
par BasicNetwork.configurator dumpAddresses false
par BasicNetwork.configurator dumpRoutes false
par BasicNetwork.configurator dumpConfig "\"\""
par BasicNetwork.r1.ethg$i[0].channel typename "\"ned.IdealChannel\""
par BasicNetwork.r1.eth[0].phys$o.channel typename "\"ned.IdealChannel\""
par BasicNetwork.r1.ethg$i[1].channel typename "\"ned.IdealChannel\""
par BasicNetwork.r1.eth[1].phys$o.channel typename "\"ned.IdealChannel\""
par BasicNetwork.r1.interfaceTable typename "\"inet.networklayer.common.InterfaceTable\""
par BasicNetwork.r1.interfaceTable displayStringTextFormat "\"\""
attr mutable ""
par BasicNetwork.r1.interfaceTable displayAddresses false
par BasicNetwork.r1.cb typename "\"inet.common.MessageDispatcher\""
par BasicNetwork.r1.cb displayStringTextFormat "\"processed %p pk (%l)\""
attr mutable ""
par BasicNetwork.r1.cb interfaceTableModule "\"BasicNetwork.r1.interfaceTable\""
par BasicNetwork.r1.cb forwardServiceRegistration true
par BasicNetwork.r1.cb forwardProtocolRegistration true
par BasicNetwork.r1.cb interfaceMapping {}
par BasicNetwork.r1.cb serviceMapping {}
par BasicNetwork.r1.cb protocolMapping {}
par BasicNetwork.r1.bl typename "\"inet.common.MessageDispatcher\""
par BasicNetwork.r1.bl displayStringTextFormat "\"processed %p pk (%l)\""
attr mutable ""
par BasicNetwork.r1.bl interfaceTableModule "\"BasicNetwork.r1.interfaceTable\""
par BasicNetwork.r1.bl forwardServiceRegistration true
par BasicNetwork.r1.bl forwardProtocolRegistration true
par BasicNetwork.r1.bl interfaceMapping {}
par BasicNetwork.r1.bl serviceMapping {}
par BasicNetwork.r1.bl protocolMapping {}
par BasicNetwork.r1.ethernet typename "\"inet.linklayer.ethernet.basic.EthernetEncapsulation\""
par BasicNetwork.r1.ethernet displayStringTextFormat "\"\""
attr mutable ""
par BasicNetwork.r1.ethernet registerProtocol true
par BasicNetwork.r1.ethernet interfaceTableModule "\"BasicNetwork.r1.interfaceTable\""
par BasicNetwork.r1.ethernet fcsMode "\"declared\""
attr enum declared,computed
par BasicNetwork.r1.ethernet stopOperationExtraTime -1s
attr unit s
par BasicNetwork.r1.ethernet stopOperationTimeout 2s
attr unit s
scalar BasicNetwork.r1.ethernet pauseSent:count 0
attr recordingmode count
attr title "pause sent, count"
scalar BasicNetwork.r1.ethernet pauseSent:sum 0
attr recordingmode sum
attr title "pause sent, sum"
scalar BasicNetwork.r1.ethernet decapPk:count 4
attr interpolationmode none
attr recordingmode count
attr source decapPk
attr title "packets decapsulated, count"
scalar BasicNetwork.r1.ethernet decapPk:sum(packetBytes) 272
attr interpolationmode none
attr recordingmode sum(packetBytes)
attr source decapPk
attr title "packets decapsulated, sum(packetBytes)"
scalar BasicNetwork.r1.ethernet encapPk:count 2
attr interpolationmode none
attr recordingmode count
attr source encapPk
attr title "packets encapsulated, count"
scalar BasicNetwork.r1.ethernet encapPk:sum(packetBytes) 128
attr interpolationmode none
attr recordingmode sum(packetBytes)
attr source encapPk
attr title "packets encapsulated, sum(packetBytes)"
par BasicNetwork.r1.li typename "\"inet.common.MessageDispatcher\""
par BasicNetwork.r1.li displayStringTextFormat "\"processed %p pk (%l)\""
attr mutable ""
par BasicNetwork.r1.li interfaceTableModule "\"BasicNetwork.r1.interfaceTable\""
par BasicNetwork.r1.li forwardServiceRegistration true
par BasicNetwork.r1.li forwardProtocolRegistration true
par BasicNetwork.r1.li interfaceMapping {}
par BasicNetwork.r1.li serviceMapping {}
par BasicNetwork.r1.li protocolMapping {}
par BasicNetwork.r1.lo[0].upperLayerIn.channel typename "\"ned.IdealChannel\""
par BasicNetwork.r1.lo[0].lo.upperLayerOut.channel typename "\"ned.IdealChannel\""
par BasicNetwork.r1.lo[0].lo typename "\"inet.linklayer.loopback.Loopback\""
par BasicNetwork.r1.lo[0].lo displayStringTextFormat "\"\""
attr mutable ""
par BasicNetwork.r1.lo[0].lo interfaceTableModule "\"BasicNetwork.r1.interfaceTable\""
par BasicNetwork.r1.lo[0].lo mtu 4470B
attr unit B
scalar BasicNetwork.r1.lo[0].lo rcvdPkFromHl:count 0
attr interpolationmode none
attr recordingmode count
attr source packetReceivedFromUpper
attr title "packets received from higher layer, count"
scalar BasicNetwork.r1.lo[0].lo rcvdPkFromHl:sum(packetBytes) 0
attr interpolationmode none
attr recordingmode sum(packetBytes)
attr source packetReceivedFromUpper
attr title "packets received from higher layer, sum(packetBytes)"
scalar BasicNetwork.r1.lo[0].lo passedUpPk:count 0
attr interpolationmode none
attr recordingmode count
attr source packetSentToUpper
attr title "packets passed to higher layer, count"
scalar BasicNetwork.r1.lo[0].lo passedUpPk:sum(packetBytes) 0
attr interpolationmode none
attr recordingmode sum(packetBytes)
attr source packetSentToUpper
attr title "packets passed to higher layer, sum(packetBytes)"
par BasicNetwork.r1.lo[0] typename "\"inet.linklayer.loopback.LoopbackInterface\""
par BasicNetwork.r1.lo[0] displayStringTextFormat "\"%a (%i)\\n%m\""
attr mutable ""
par BasicNetwork.r1.lo[0] recordPcap false
par BasicNetwork.r1.lo[0] numPcapRecorders 0
par BasicNetwork.r1.lo[0] interfaceTableModule "\"BasicNetwork.r1.interfaceTable\""
scalar BasicNetwork.r1.lo[0] packetDropInterfaceDown:count 0
attr interpolationmode none
attr recordingmode count
attr source packetDropReasonIsInterfaceDown(packetDropped)
attr title "packet drops: interface down, count"
scalar BasicNetwork.r1.lo[0] packetDropInterfaceDown:sum(packetBytes) 0
attr interpolationmode none
attr recordingmode sum(packetBytes)
attr source packetDropReasonIsInterfaceDown(packetDropped)
attr title "packet drops: interface down, sum(packetBytes)"
scalar BasicNetwork.r1.lo[0] packetDropNoCarrier:count 0
attr interpolationmode none
attr recordingmode count
attr source packetDropReasonIsNoCarrier(packetDropped)
attr title "packet drops: no carrier, count"
scalar BasicNetwork.r1.lo[0] packetDropNoCarrier:sum(packetBytes) 0
attr interpolationmode none
attr recordingmode sum(packetBytes)
attr source packetDropReasonIsNoCarrier(packetDropped)
attr title "packet drops: no carrier, sum(packetBytes)"
par BasicNetwork.r1.eth[0].mac.phys$o.channel typename "\"ned.IdealChannel\""
par BasicNetwork.r1.eth[0].phys$i.channel typename "\"ned.IdealChannel\""
par BasicNetwork.r1.eth[0].upperLayerIn.channel typename "\"ned.IdealChannel\""
par BasicNetwork.r1.eth[0].mac.upperLayerOut.channel typename "\"ned.IdealChannel\""
par BasicNetwork.r1.eth[0].queue typename "\"inet.linklayer.ethernet.common.EthernetQueue\""
par BasicNetwork.r1.eth[0].queue displayStringTextFormat "\"contains %p pk (%l) pushed %u\\npulled %o removed %r dropped %d\""
attr mutable ""
par BasicNetwork.r1.eth[0].queue packetCapacity 1000
par BasicNetwork.r1.eth[0].queue dataCapacity -1b
attr unit b
par BasicNetwork.r1.eth[0].queue dropperClass "\"inet::queueing::PacketAtCollectionEndDropper\""
par BasicNetwork.r1.eth[0].queue comparatorClass "\"inet::EthernetFrameTypeComparator\""
par BasicNetwork.r1.eth[0].queue bufferModule "\"\""
scalar BasicNetwork.r1.eth[0].queue queueLength:last 0
attr autoWarmupFilter false
attr interpolationmode sample-hold
attr recordingmode last
attr source "warmup(atomic(constant0(packetPushEnded) + count(packetPushStarted) - count(packetPulled) - count(packetRemoved) - count(packetDropped)))"
attr title "queue length, last"
attr unit pk
scalar BasicNetwork.r1.eth[0].queue queueLength:max 0
attr autoWarmupFilter false
attr interpolationmode sample-hold
attr recordingmode max
attr source "warmup(atomic(constant0(packetPushEnded) + count(packetPushStarted) - count(packetPulled) - count(packetRemoved) - count(packetDropped)))"
attr title "queue length, max"
attr unit pk
scalar BasicNetwork.r1.eth[0].queue queueLength:timeavg 0
attr autoWarmupFilter false
attr interpolationmode sample-hold
attr recordingmode timeavg
attr source "warmup(atomic(constant0(packetPushEnded) + count(packetPushStarted) - count(packetPulled) - count(packetRemoved) - count(packetDropped)))"
attr title "queue length, timeavg"
attr unit pk
scalar BasicNetwork.r1.eth[0].queue queueBitLength:last 0
attr autoWarmupFilter false
attr interpolationmode sample-hold
attr recordingmode last
attr source "warmup(atomic(constant0(packetPushEnded) + sum(packetLength(packetPushStarted)) - sum(packetLength(packetPulled)) - sum(packetLength(packetRemoved)) - sum(packetLength(packetDropped))))"
attr title "queue bit length, last"
attr unit b
scalar BasicNetwork.r1.eth[0].queue queueBitLength:max 0
attr autoWarmupFilter false
attr interpolationmode sample-hold
attr recordingmode max
attr source "warmup(atomic(constant0(packetPushEnded) + sum(packetLength(packetPushStarted)) - sum(packetLength(packetPulled)) - sum(packetLength(packetRemoved)) - sum(packetLength(packetDropped))))"
attr title "queue bit length, max"
attr unit b
scalar BasicNetwork.r1.eth[0].queue queueBitLength:timeavg 0
attr autoWarmupFilter false
attr interpolationmode sample-hold
attr recordingmode timeavg
attr source "warmup(atomic(constant0(packetPushEnded) + sum(packetLength(packetPushStarted)) - sum(packetLength(packetPulled)) - sum(packetLength(packetRemoved)) - sum(packetLength(packetDropped))))"
attr title "queue bit length, timeavg"
attr unit b
statistic BasicNetwork.r1.eth[0].queue queueingTime:histogram
field count 1
field mean 0
field stddev nan
field min 0
field max 0
field sum 0
field sqrsum 0
attr interpolationmode none
attr recordingmode histogram
attr source queueingTime(packetPulled)
attr title "queueing times"
attr unit s
bin	-inf	0
bin	-0.5	0
bin	-0.48	0
bin	-0.46	0
bin	-0.44	0
bin	-0.42	0
bin	-0.4	0
bin	-0.38	0
bin	-0.36	0
bin	-0.34	0
bin	-0.32	0
bin	-0.3	0
bin	-0.28	0
bin	-0.26	0
bin	-0.24	0
bin	-0.22	0
bin	-0.2	0
bin	-0.18	0
bin	-0.16	0
bin	-0.14	0
bin	-0.12	0
bin	-0.1	0
bin	-0.08	0
bin	-0.06	0
bin	-0.04	0
bin	-0.02	0
bin	0	1
bin	0.02	0
bin	0.04	0
bin	0.06	0
bin	0.08	0
bin	0.1	0
bin	0.12	0
bin	0.14	0
bin	0.16	0
bin	0.18	0
bin	0.2	0
bin	0.22	0
bin	0.24	0
bin	0.26	0
bin	0.28	0
bin	0.3	0
bin	0.32	0
bin	0.34	0
bin	0.36	0
bin	0.38	0
bin	0.4	0
bin	0.42	0
bin	0.44	0
bin	0.46	0
bin	0.48	0
bin	0.5	0
scalar BasicNetwork.r1.eth[0].queue outgoingPackets:count 1
attr recordingmode count
attr source packetPulled
attr title "outgoing packets, count"
attr unit pk
scalar BasicNetwork.r1.eth[0].queue outgoingPacketLengths:sum 656
attr interpolationmode none
attr recordingmode sum
attr source packetLength(packetPulled)
attr title "outgoing packet lengths, sum"
attr unit b
statistic BasicNetwork.r1.eth[0].queue outgoingPacketLengths:histogram
field count 1
field mean 656
field stddev nan
field min 656
field max 656
field sum 656
field sqrsum 430336
attr interpolationmode none
attr recordingmode histogram
attr source packetLength(packetPulled)
attr title "outgoing packet lengths"
attr unit b
bin	-inf	0
bin	655	0
bin	656	1
bin	657	0
statistic BasicNetwork.r1.eth[0].queue flowQueueingTime:histogram
field count 0
field mean -nan
field stddev nan
field min nan
field max nan
field sum 0
field sqrsum 0
attr interpolationmode none
attr recordingmode histogram
attr source queueingTime(demuxFlow(packetPulled))
attr title "flow queueing times"
attr unit s
bin	-inf	0
bin	0	0
bin	1	0
scalar BasicNetwork.r1.eth[0].queue incomingPackets:count 1
attr recordingmode count
attr source packetPushStarted
attr title "incoming packets, count"
attr unit pk
scalar BasicNetwork.r1.eth[0].queue incomingPacketLengths:sum 656
attr interpolationmode none
attr recordingmode sum
attr source packetLength(packetPushStarted)
attr title "incoming packet lengths, sum"
attr unit b
statistic BasicNetwork.r1.eth[0].queue incomingPacketLengths:histogram
field count 1
field mean 656
field stddev nan
field min 656
field max 656
field sum 656
field sqrsum 430336
attr interpolationmode none
attr recordingmode histogram
attr source packetLength(packetPushStarted)
attr title "incoming packet lengths"
attr unit b
bin	-inf	0
bin	655	0
bin	656	1
bin	657	0
scalar BasicNetwork.r1.eth[0].queue droppedPacketsQueueOverflow:count 0
attr interpolationmode none
attr recordingmode count
attr source packetDropReasonIsQueueOverflow(packetDropped)
attr title "dropped packets: queue overflow, count"
attr unit pk
scalar BasicNetwork.r1.eth[0].queue droppedPacketLengthsQueueOverflow:sum 0
attr interpolationmode none
attr recordingmode sum
attr source packetLength(packetDropReasonIsQueueOverflow(packetDropped))
attr title "dropped packet lengths: queue overflow, sum"
attr unit b
par BasicNetwork.r1.eth[0].mac typename "\"inet.linklayer.ethernet.basic.EthernetMacPhy\""
par BasicNetwork.r1.eth[0].mac displayStringTextFormat "\"rate: %b\\nsent: %s, rcvd: %r\\nqueue: %q, drop: %d\""
attr mutable ""
par BasicNetwork.r1.eth[0].mac interfaceTableModule "\"BasicNetwork.r1.interfaceTable\""
par BasicNetwork.r1.eth[0].mac sendRawBytes false
par BasicNetwork.r1.eth[0].mac promiscuous false
par BasicNetwork.r1.eth[0].mac duplexMode true
par BasicNetwork.r1.eth[0].mac allowNonstandardBitrate false
par BasicNetwork.r1.eth[0].mac receptionMode "\"auto\""
attr enum onStart,auto,onEnd,forceOnEnd
par BasicNetwork.r1.eth[0].mac mtu 1500B
attr unit B
par BasicNetwork.r1.eth[0].mac fcsMode "\"declared\""
attr enum declared,computed
par BasicNetwork.r1.eth[0].mac stopOperationExtraTime -1s
attr unit s
par BasicNetwork.r1.eth[0].mac stopOperationTimeout 2s
attr unit s
scalar BasicNetwork.r1.eth[0].mac "simulated time" 2.483268590423
scalar BasicNetwork.r1.eth[0].mac full-duplex 1
scalar BasicNetwork.r1.eth[0].mac "frames/sec sent" 0.40269506240952
scalar BasicNetwork.r1.eth[0].mac "frames/sec rcvd" 1.2080851872286
scalar BasicNetwork.r1.eth[0].mac "bits/sec sent" 264.16796094065
scalar BasicNetwork.r1.eth[0].mac "bits/sec rcvd" 844.04885081036
scalar BasicNetwork.r1.eth[0].mac "rx channel idle (%)" 99.999078633697
scalar BasicNetwork.r1.eth[0].mac "rx channel utilization (%)" 0.00092136630279299
scalar BasicNetwork.r1.eth[0].mac rxPausePkUnits:count 0
attr interpolationmode none
attr recordingmode count
attr title "pause units received, count"
scalar BasicNetwork.r1.eth[0].mac rxPausePkUnits:sum 0
attr interpolationmode none
attr recordingmode sum
attr title "pause units received, sum"
scalar BasicNetwork.r1.eth[0].mac txPausePkUnits:count 0
attr interpolationmode none
attr recordingmode count
attr title "pause units sent, count"
scalar BasicNetwork.r1.eth[0].mac txPausePkUnits:sum 0
attr interpolationmode none
attr recordingmode sum
attr title "pause units sent, sum"
scalar BasicNetwork.r1.eth[0].mac rxPkOk:count 3
attr interpolationmode none
attr recordingmode count
attr source rxPkOk
attr title "packets received OK, count"
scalar BasicNetwork.r1.eth[0].mac rxPkOk:sum(packetBytes) 262
attr interpolationmode none
attr recordingmode sum(packetBytes)
attr source rxPkOk
attr title "packets received OK, sum(packetBytes)"
statistic BasicNetwork.r1.eth[0].mac throughput:histogram
field count 25
field mean 288
field stddev 1440
field min 0
field max 7200
field sum 7200
field sqrsum 51840000
attr interpolationmode linear
attr recordingmode histogram
attr source throughput(transmissionEnded)
attr title throughput
attr unit bps
bin	-inf	0
bin	0	24
bin	200	0
bin	400	0
bin	600	0
bin	800	0
bin	1000	0
bin	1200	0
bin	1400	0
bin	1600	0
bin	1800	0
bin	2000	0
bin	2200	0
bin	2400	0
bin	2600	0
bin	2800	0
bin	3000	0
bin	3200	0
bin	3400	0
bin	3600	0
bin	3800	0
bin	4000	0
bin	4200	0
bin	4400	0
bin	4600	0
bin	4800	0
bin	5000	0
bin	5200	0
bin	5400	0
bin	5600	0
bin	5800	0
bin	6000	0
bin	6200	0
bin	6400	0
bin	6600	0
bin	6800	0
bin	7000	0
bin	7200	1
bin	7400	0
bin	7600	0
bin	7800	0
bin	8000	0
bin	8200	0
bin	8400	0
bin	8600	0
bin	8800	0
bin	9000	0
bin	9200	0
statistic BasicNetwork.r1.eth[0].mac utilization:histogram
field count 25
field mean 0.000288
field stddev 0.00144
field min 0
field max 0.0072
field sum 0.0072
field sqrsum 5.184e-05
attr interpolationmode linear
attr recordingmode histogram
attr source "100 * utilization(count(transmissionStarted) - count(transmissionEnded))"
attr title utilization
attr unit %
bin	-inf	0
bin	0	24
bin	0.0002	0
bin	0.0004	0
bin	0.0006	0
bin	0.0008	0
bin	0.001	0
bin	0.0012	0
bin	0.0014	0
bin	0.0016	0
bin	0.0018	0
bin	0.002	0
bin	0.0022	0
bin	0.0024	0
bin	0.0026	0
bin	0.0028	0
bin	0.003	0
bin	0.0032	0
bin	0.0034	0
bin	0.0036	0
bin	0.0038	0
bin	0.004	0
bin	0.0042	0
bin	0.0044	0
bin	0.0046	0
bin	0.0048	0
bin	0.005	0
bin	0.0052	0
bin	0.0054	0
bin	0.0056	0
bin	0.0058	0
bin	0.006	0
bin	0.0062	0
bin	0.0064	0
bin	0.0066	0
bin	0.0068	0
bin	0.007	1
bin	0.0072	0
bin	0.0074	0
bin	0.0076	0
bin	0.0078	0
bin	0.008	0
bin	0.0082	0
bin	0.0084	0
bin	0.0086	0
bin	0.0088	0
bin	0.009	0
scalar BasicNetwork.r1.eth[0].mac txPk:count 1
attr interpolationmode none
attr recordingmode count
attr source packetSentToLower
attr title "packets transmitted, count"
scalar BasicNetwork.r1.eth[0].mac txPk:sum(packetBytes) 82
attr interpolationmode none
attr recordingmode sum(packetBytes)
attr source packetSentToLower
attr title "packets transmitted, sum(packetBytes)"
scalar BasicNetwork.r1.eth[0].mac packetReceivedFromUpper:count 1
attr interpolationmode none
attr recordingmode count
attr source packetReceivedFromUpper
attr title "packet bytes from higher layer, count"
scalar BasicNetwork.r1.eth[0].mac packetReceivedFromUpper:sum(packetBytes) 82
attr interpolationmode none
attr recordingmode sum(packetBytes)
attr source packetReceivedFromUpper
attr title "packet bytes from higher layer, sum(packetBytes)"
scalar BasicNetwork.r1.eth[0].mac passedUpPk:count 3
attr interpolationmode none
attr recordingmode count
attr source packetSentToUpper
attr title "packets passed to higher layer, count"
scalar BasicNetwork.r1.eth[0].mac passedUpPk:sum(packetBytes) 262
attr interpolationmode none
attr recordingmode sum(packetBytes)
attr source packetSentToUpper
attr title "packets passed to higher layer, sum(packetBytes)"
scalar BasicNetwork.r1.eth[0].mac packetDropIncorrectlyReceived:count 0
attr interpolationmode none
attr recordingmode count
attr source packetDropReasonIsIncorrectlyReceived(packetDropped)
attr title "packet drop: incorrectly received, count"
scalar BasicNetwork.r1.eth[0].mac packetDropIncorrectlyReceived:sum(packetBytes) 0
attr interpolationmode none
attr recordingmode sum(packetBytes)
attr source packetDropReasonIsIncorrectlyReceived(packetDropped)
attr title "packet drop: incorrectly received, sum(packetBytes)"
scalar BasicNetwork.r1.eth[0].mac packetDropInterfaceDown:count 0
attr interpolationmode none
attr recordingmode count
attr source packetDropReasonIsInterfaceDown(packetDropped)
attr title "packet drop: interface down, count"
scalar BasicNetwork.r1.eth[0].mac packetDropInterfaceDown:sum(packetBytes) 0
attr interpolationmode none
attr recordingmode sum(packetBytes)
attr source packetDropReasonIsInterfaceDown(packetDropped)
attr title "packet drop: interface down, sum(packetBytes)"
scalar BasicNetwork.r1.eth[0].mac packetDropNotAddressedToUs:count 0
attr interpolationmode none
attr recordingmode count
attr source packetDropReasonIsNotAddressedToUs(packetDropped)
attr title "packet drop: not addressed to us, count"
scalar BasicNetwork.r1.eth[0].mac packetDropNotAddressedToUs:sum(packetBytes) 0
attr interpolationmode none
attr recordingmode sum(packetBytes)
attr source packetDropReasonIsNotAddressedToUs(packetDropped)
attr title "packet drop: not addressed to us, sum(packetBytes)"
par BasicNetwork.r1.eth[0] typename "\"inet.linklayer.ethernet.basic.EthernetInterface\""
par BasicNetwork.r1.eth[0] displayStringTextFormat "\"%a (%i)\\n%m\""
attr mutable ""
par BasicNetwork.r1.eth[0] recordPcap false
par BasicNetwork.r1.eth[0] numPcapRecorders 0
par BasicNetwork.r1.eth[0] interfaceTableModule "\"BasicNetwork.r1.interfaceTable\""
par BasicNetwork.r1.eth[0] protocol "\"ethernetmac\""
par BasicNetwork.r1.eth[0] address "\"0A-AA-00-00-00-01\""
attr mutable ""
par BasicNetwork.r1.eth[0] duplexMode true
par BasicNetwork.r1.eth[0] csmacdSupport false
par BasicNetwork.r1.eth[0] bitrate 0bps
attr unit bps
par BasicNetwork.r1.eth[0] fcsMode "\"declared\""
attr enum declared,computed
scalar BasicNetwork.r1.eth[0] packetDropInterfaceDown:count 0
attr interpolationmode none
attr recordingmode count
attr source packetDropReasonIsInterfaceDown(packetDropped)
attr title "packet drops: interface down, count"
scalar BasicNetwork.r1.eth[0] packetDropInterfaceDown:sum(packetBytes) 0
attr interpolationmode none
attr recordingmode sum(packetBytes)
attr source packetDropReasonIsInterfaceDown(packetDropped)
attr title "packet drops: interface down, sum(packetBytes)"
scalar BasicNetwork.r1.eth[0] packetDropNoCarrier:count 0
attr interpolationmode none
attr recordingmode count
attr source packetDropReasonIsNoCarrier(packetDropped)
attr title "packet drops: no carrier, count"
scalar BasicNetwork.r1.eth[0] packetDropNoCarrier:sum(packetBytes) 0
attr interpolationmode none
attr recordingmode sum(packetBytes)
attr source packetDropReasonIsNoCarrier(packetDropped)
attr title "packet drops: no carrier, sum(packetBytes)"
par BasicNetwork.r1.eth[1].mac.phys$o.channel typename "\"ned.IdealChannel\""
par BasicNetwork.r1.eth[1].phys$i.channel typename "\"ned.IdealChannel\""
par BasicNetwork.r1.eth[1].upperLayerIn.channel typename "\"ned.IdealChannel\""
par BasicNetwork.r1.eth[1].mac.upperLayerOut.channel typename "\"ned.IdealChannel\""
par BasicNetwork.r1.eth[1].queue typename "\"inet.linklayer.ethernet.common.EthernetQueue\""
par BasicNetwork.r1.eth[1].queue displayStringTextFormat "\"contains %p pk (%l) pushed %u\\npulled %o removed %r dropped %d\""
attr mutable ""
par BasicNetwork.r1.eth[1].queue packetCapacity 1000
par BasicNetwork.r1.eth[1].queue dataCapacity -1b
attr unit b
par BasicNetwork.r1.eth[1].queue dropperClass "\"inet::queueing::PacketAtCollectionEndDropper\""
par BasicNetwork.r1.eth[1].queue comparatorClass "\"inet::EthernetFrameTypeComparator\""
par BasicNetwork.r1.eth[1].queue bufferModule "\"\""
scalar BasicNetwork.r1.eth[1].queue queueLength:last 0
attr autoWarmupFilter false
attr interpolationmode sample-hold
attr recordingmode last
attr source "warmup(atomic(constant0(packetPushEnded) + count(packetPushStarted) - count(packetPulled) - count(packetRemoved) - count(packetDropped)))"
attr title "queue length, last"
attr unit pk
scalar BasicNetwork.r1.eth[1].queue queueLength:max 0
attr autoWarmupFilter false
attr interpolationmode sample-hold
attr recordingmode max
attr source "warmup(atomic(constant0(packetPushEnded) + count(packetPushStarted) - count(packetPulled) - count(packetRemoved) - count(packetDropped)))"
attr title "queue length, max"
attr unit pk
scalar BasicNetwork.r1.eth[1].queue queueLength:timeavg 0
attr autoWarmupFilter false
attr interpolationmode sample-hold
attr recordingmode timeavg
attr source "warmup(atomic(constant0(packetPushEnded) + count(packetPushStarted) - count(packetPulled) - count(packetRemoved) - count(packetDropped)))"
attr title "queue length, timeavg"
attr unit pk
scalar BasicNetwork.r1.eth[1].queue queueBitLength:last 0
attr autoWarmupFilter false
attr interpolationmode sample-hold
attr recordingmode last
attr source "warmup(atomic(constant0(packetPushEnded) + sum(packetLength(packetPushStarted)) - sum(packetLength(packetPulled)) - sum(packetLength(packetRemoved)) - sum(packetLength(packetDropped))))"
attr title "queue bit length, last"
attr unit b
scalar BasicNetwork.r1.eth[1].queue queueBitLength:max 0
attr autoWarmupFilter false
attr interpolationmode sample-hold
attr recordingmode max
attr source "warmup(atomic(constant0(packetPushEnded) + sum(packetLength(packetPushStarted)) - sum(packetLength(packetPulled)) - sum(packetLength(packetRemoved)) - sum(packetLength(packetDropped))))"
attr title "queue bit length, max"
attr unit b
scalar BasicNetwork.r1.eth[1].queue queueBitLength:timeavg 0
attr autoWarmupFilter false
attr interpolationmode sample-hold
attr recordingmode timeavg
attr source "warmup(atomic(constant0(packetPushEnded) + sum(packetLength(packetPushStarted)) - sum(packetLength(packetPulled)) - sum(packetLength(packetRemoved)) - sum(packetLength(packetDropped))))"
attr title "queue bit length, timeavg"
attr unit b
statistic BasicNetwork.r1.eth[1].queue queueingTime:histogram
field count 1
field mean 0
field stddev nan
field min 0
field max 0
field sum 0
field sqrsum 0
attr interpolationmode none
attr recordingmode histogram
attr source queueingTime(packetPulled)
attr title "queueing times"
attr unit s
bin	-inf	0
bin	-0.5	0
bin	-0.48	0
bin	-0.46	0
bin	-0.44	0
bin	-0.42	0
bin	-0.4	0
bin	-0.38	0
bin	-0.36	0
bin	-0.34	0
bin	-0.32	0
bin	-0.3	0
bin	-0.28	0
bin	-0.26	0
bin	-0.24	0
bin	-0.22	0
bin	-0.2	0
bin	-0.18	0
bin	-0.16	0
bin	-0.14	0
bin	-0.12	0
bin	-0.1	0
bin	-0.08	0
bin	-0.06	0
bin	-0.04	0
bin	-0.02	0
bin	0	1
bin	0.02	0
bin	0.04	0
bin	0.06	0
bin	0.08	0
bin	0.1	0
bin	0.12	0
bin	0.14	0
bin	0.16	0
bin	0.18	0
bin	0.2	0
bin	0.22	0
bin	0.24	0
bin	0.26	0
bin	0.28	0
bin	0.3	0
bin	0.32	0
bin	0.34	0
bin	0.36	0
bin	0.38	0
bin	0.4	0
bin	0.42	0
bin	0.44	0
bin	0.46	0
bin	0.48	0
bin	0.5	0
scalar BasicNetwork.r1.eth[1].queue outgoingPackets:count 1
attr recordingmode count
attr source packetPulled
attr title "outgoing packets, count"
attr unit pk
scalar BasicNetwork.r1.eth[1].queue outgoingPacketLengths:sum 656
attr interpolationmode none
attr recordingmode sum
attr source packetLength(packetPulled)
attr title "outgoing packet lengths, sum"
attr unit b
statistic BasicNetwork.r1.eth[1].queue outgoingPacketLengths:histogram
field count 1
field mean 656
field stddev nan
field min 656
field max 656
field sum 656
field sqrsum 430336
attr interpolationmode none
attr recordingmode histogram
attr source packetLength(packetPulled)
attr title "outgoing packet lengths"
attr unit b
bin	-inf	0
bin	655	0
bin	656	1
bin	657	0
statistic BasicNetwork.r1.eth[1].queue flowQueueingTime:histogram
field count 0
field mean -nan
field stddev nan
field min nan
field max nan
field sum 0
field sqrsum 0
attr interpolationmode none
attr recordingmode histogram
attr source queueingTime(demuxFlow(packetPulled))
attr title "flow queueing times"
attr unit s
bin	-inf	0
bin	0	0
bin	1	0
scalar BasicNetwork.r1.eth[1].queue incomingPackets:count 1
attr recordingmode count
attr source packetPushStarted
attr title "incoming packets, count"
attr unit pk
scalar BasicNetwork.r1.eth[1].queue incomingPacketLengths:sum 656
attr interpolationmode none
attr recordingmode sum
attr source packetLength(packetPushStarted)
attr title "incoming packet lengths, sum"
attr unit b
statistic BasicNetwork.r1.eth[1].queue incomingPacketLengths:histogram
field count 1
field mean 656
field stddev nan
field min 656
field max 656
field sum 656
field sqrsum 430336
attr interpolationmode none
attr recordingmode histogram
attr source packetLength(packetPushStarted)
attr title "incoming packet lengths"
attr unit b
bin	-inf	0
bin	655	0
bin	656	1
bin	657	0
scalar BasicNetwork.r1.eth[1].queue droppedPacketsQueueOverflow:count 0
attr interpolationmode none
attr recordingmode count
attr source packetDropReasonIsQueueOverflow(packetDropped)
attr title "dropped packets: queue overflow, count"
attr unit pk
scalar BasicNetwork.r1.eth[1].queue droppedPacketLengthsQueueOverflow:sum 0
attr interpolationmode none
attr recordingmode sum
attr source packetLength(packetDropReasonIsQueueOverflow(packetDropped))
attr title "dropped packet lengths: queue overflow, sum"
attr unit b
par BasicNetwork.r1.eth[1].mac typename "\"inet.linklayer.ethernet.basic.EthernetMacPhy\""
par BasicNetwork.r1.eth[1].mac displayStringTextFormat "\"rate: %b\\nsent: %s, rcvd: %r\\nqueue: %q, drop: %d\""
attr mutable ""
par BasicNetwork.r1.eth[1].mac interfaceTableModule "\"BasicNetwork.r1.interfaceTable\""
par BasicNetwork.r1.eth[1].mac sendRawBytes false
par BasicNetwork.r1.eth[1].mac promiscuous false
par BasicNetwork.r1.eth[1].mac duplexMode true
par BasicNetwork.r1.eth[1].mac allowNonstandardBitrate false
par BasicNetwork.r1.eth[1].mac receptionMode "\"auto\""
attr enum onStart,auto,onEnd,forceOnEnd
par BasicNetwork.r1.eth[1].mac mtu 1500B
attr unit B
par BasicNetwork.r1.eth[1].mac fcsMode "\"declared\""
attr enum declared,computed
par BasicNetwork.r1.eth[1].mac stopOperationExtraTime -1s
attr unit s
par BasicNetwork.r1.eth[1].mac stopOperationTimeout 2s
attr unit s
scalar BasicNetwork.r1.eth[1].mac "simulated time" 2.483268590423
scalar BasicNetwork.r1.eth[1].mac full-duplex 1
scalar BasicNetwork.r1.eth[1].mac "frames/sec sent" 0.40269506240952
scalar BasicNetwork.r1.eth[1].mac "frames/sec rcvd" 0.40269506240952
scalar BasicNetwork.r1.eth[1].mac "bits/sec sent" 264.16796094065
scalar BasicNetwork.r1.eth[1].mac "bits/sec rcvd" 264.16796094065
scalar BasicNetwork.r1.eth[1].mac "rx channel idle (%)" 99.997100595551
scalar BasicNetwork.r1.eth[1].mac "rx channel utilization (%)" 0.0028994044493486
scalar BasicNetwork.r1.eth[1].mac rxPausePkUnits:count 0
attr interpolationmode none
attr recordingmode count
attr title "pause units received, count"
scalar BasicNetwork.r1.eth[1].mac rxPausePkUnits:sum 0
attr interpolationmode none
attr recordingmode sum
attr title "pause units received, sum"
scalar BasicNetwork.r1.eth[1].mac txPausePkUnits:count 0
attr interpolationmode none
attr recordingmode count
attr title "pause units sent, count"
scalar BasicNetwork.r1.eth[1].mac txPausePkUnits:sum 0
attr interpolationmode none
attr recordingmode sum
attr title "pause units sent, sum"
scalar BasicNetwork.r1.eth[1].mac rxPkOk:count 1
attr interpolationmode none
attr recordingmode count
attr source rxPkOk
attr title "packets received OK, count"
scalar BasicNetwork.r1.eth[1].mac rxPkOk:sum(packetBytes) 82
attr interpolationmode none
attr recordingmode sum(packetBytes)
attr source rxPkOk
attr title "packets received OK, sum(packetBytes)"
statistic BasicNetwork.r1.eth[1].mac throughput:histogram
field count 25
field mean 288
field stddev 1440
field min 0
field max 7200
field sum 7200
field sqrsum 51840000
attr interpolationmode linear
attr recordingmode histogram
attr source throughput(transmissionEnded)
attr title throughput
attr unit bps
bin	-inf	0
bin	0	24
bin	200	0
bin	400	0
bin	600	0
bin	800	0
bin	1000	0
bin	1200	0
bin	1400	0
bin	1600	0
bin	1800	0
bin	2000	0
bin	2200	0
bin	2400	0
bin	2600	0
bin	2800	0
bin	3000	0
bin	3200	0
bin	3400	0
bin	3600	0
bin	3800	0
bin	4000	0
bin	4200	0
bin	4400	0
bin	4600	0
bin	4800	0
bin	5000	0
bin	5200	0
bin	5400	0
bin	5600	0
bin	5800	0
bin	6000	0
bin	6200	0
bin	6400	0
bin	6600	0
bin	6800	0
bin	7000	0
bin	7200	1
bin	7400	0
bin	7600	0
bin	7800	0
bin	8000	0
bin	8200	0
bin	8400	0
bin	8600	0
bin	8800	0
bin	9000	0
bin	9200	0
statistic BasicNetwork.r1.eth[1].mac utilization:histogram
field count 25
field mean 0.00288
field stddev 0.0144
field min 0
field max 0.072
field sum 0.072
field sqrsum 0.005184
attr interpolationmode linear
attr recordingmode histogram
attr source "100 * utilization(count(transmissionStarted) - count(transmissionEnded))"
attr title utilization
attr unit %
bin	-inf	0
bin	0	24
bin	0.002	0
bin	0.004	0
bin	0.006	0
bin	0.008	0
bin	0.01	0
bin	0.012	0
bin	0.014	0
bin	0.016	0
bin	0.018	0
bin	0.02	0
bin	0.022	0
bin	0.024	0
bin	0.026	0
bin	0.028	0
bin	0.03	0
bin	0.032	0
bin	0.034	0
bin	0.036	0
bin	0.038	0
bin	0.04	0
bin	0.042	0
bin	0.044	0
bin	0.046	0
bin	0.048	0
bin	0.05	0
bin	0.052	0
bin	0.054	0
bin	0.056	0
bin	0.058	0
bin	0.06	0
bin	0.062	0
bin	0.064	0
bin	0.066	0
bin	0.068	0
bin	0.07	0
bin	0.072	1
bin	0.074	0
bin	0.076	0
bin	0.078	0
bin	0.08	0
bin	0.082	0
bin	0.084	0
bin	0.086	0
bin	0.088	0
bin	0.09	0
bin	0.092	0
scalar BasicNetwork.r1.eth[1].mac txPk:count 1
attr interpolationmode none
attr recordingmode count
attr source packetSentToLower
attr title "packets transmitted, count"
scalar BasicNetwork.r1.eth[1].mac txPk:sum(packetBytes) 82
attr interpolationmode none
attr recordingmode sum(packetBytes)
attr source packetSentToLower
attr title "packets transmitted, sum(packetBytes)"
scalar BasicNetwork.r1.eth[1].mac packetReceivedFromUpper:count 1
attr interpolationmode none
attr recordingmode count
attr source packetReceivedFromUpper
attr title "packet bytes from higher layer, count"
scalar BasicNetwork.r1.eth[1].mac packetReceivedFromUpper:sum(packetBytes) 82
attr interpolationmode none
attr recordingmode sum(packetBytes)
attr source packetReceivedFromUpper
attr title "packet bytes from higher layer, sum(packetBytes)"
scalar BasicNetwork.r1.eth[1].mac passedUpPk:count 1
attr interpolationmode none
attr recordingmode count
attr source packetSentToUpper
attr title "packets passed to higher layer, count"
scalar BasicNetwork.r1.eth[1].mac passedUpPk:sum(packetBytes) 82
attr interpolationmode none
attr recordingmode sum(packetBytes)
attr source packetSentToUpper
attr title "packets passed to higher layer, sum(packetBytes)"
scalar BasicNetwork.r1.eth[1].mac packetDropIncorrectlyReceived:count 0
attr interpolationmode none
attr recordingmode count
attr source packetDropReasonIsIncorrectlyReceived(packetDropped)
attr title "packet drop: incorrectly received, count"
scalar BasicNetwork.r1.eth[1].mac packetDropIncorrectlyReceived:sum(packetBytes) 0
attr interpolationmode none
attr recordingmode sum(packetBytes)
attr source packetDropReasonIsIncorrectlyReceived(packetDropped)
attr title "packet drop: incorrectly received, sum(packetBytes)"
scalar BasicNetwork.r1.eth[1].mac packetDropInterfaceDown:count 0
attr interpolationmode none
attr recordingmode count
attr source packetDropReasonIsInterfaceDown(packetDropped)
attr title "packet drop: interface down, count"
scalar BasicNetwork.r1.eth[1].mac packetDropInterfaceDown:sum(packetBytes) 0
attr interpolationmode none
attr recordingmode sum(packetBytes)
attr source packetDropReasonIsInterfaceDown(packetDropped)
attr title "packet drop: interface down, sum(packetBytes)"
scalar BasicNetwork.r1.eth[1].mac packetDropNotAddressedToUs:count 0
attr interpolationmode none
attr recordingmode count
attr source packetDropReasonIsNotAddressedToUs(packetDropped)
attr title "packet drop: not addressed to us, count"
scalar BasicNetwork.r1.eth[1].mac packetDropNotAddressedToUs:sum(packetBytes) 0
attr interpolationmode none
attr recordingmode sum(packetBytes)
attr source packetDropReasonIsNotAddressedToUs(packetDropped)
attr title "packet drop: not addressed to us, sum(packetBytes)"
par BasicNetwork.r1.eth[1] typename "\"inet.linklayer.ethernet.basic.EthernetInterface\""
par BasicNetwork.r1.eth[1] displayStringTextFormat "\"%a (%i)\\n%m\""
attr mutable ""
par BasicNetwork.r1.eth[1] recordPcap false
par BasicNetwork.r1.eth[1] numPcapRecorders 0
par BasicNetwork.r1.eth[1] interfaceTableModule "\"BasicNetwork.r1.interfaceTable\""
par BasicNetwork.r1.eth[1] protocol "\"ethernetmac\""
par BasicNetwork.r1.eth[1] address "\"0A-AA-00-00-00-02\""
attr mutable ""
par BasicNetwork.r1.eth[1] duplexMode true
par BasicNetwork.r1.eth[1] csmacdSupport false
par BasicNetwork.r1.eth[1] bitrate 0bps
attr unit bps
par BasicNetwork.r1.eth[1] fcsMode "\"declared\""
attr enum declared,computed
scalar BasicNetwork.r1.eth[1] packetDropInterfaceDown:count 0
attr interpolationmode none
attr recordingmode count
attr source packetDropReasonIsInterfaceDown(packetDropped)
attr title "packet drops: interface down, count"
scalar BasicNetwork.r1.eth[1] packetDropInterfaceDown:sum(packetBytes) 0
attr interpolationmode none
attr recordingmode sum(packetBytes)
attr source packetDropReasonIsInterfaceDown(packetDropped)
attr title "packet drops: interface down, sum(packetBytes)"
scalar BasicNetwork.r1.eth[1] packetDropNoCarrier:count 0
attr interpolationmode none
attr recordingmode count
attr source packetDropReasonIsNoCarrier(packetDropped)
attr title "packet drops: no carrier, count"
scalar BasicNetwork.r1.eth[1] packetDropNoCarrier:sum(packetBytes) 0
attr interpolationmode none
attr recordingmode sum(packetBytes)
attr source packetDropReasonIsNoCarrier(packetDropped)
attr title "packet drops: no carrier, sum(packetBytes)"
par BasicNetwork.r1.ipv6.transportIn.channel typename "\"ned.IdealChannel\""
par BasicNetwork.r1.ipv6.up.out[0].channel typename "\"ned.IdealChannel\""
par BasicNetwork.r1.ipv6.ipv6.queueOut.channel typename "\"ned.IdealChannel\""
par BasicNetwork.r1.ipv6.ifIn.channel typename "\"ned.IdealChannel\""
par BasicNetwork.r1.ipv6.routingTable typename "\"inet.networklayer.ipv6.Ipv6RoutingTable\""
par BasicNetwork.r1.ipv6.routingTable displayStringTextFormat "\"\""
attr mutable ""
par BasicNetwork.r1.ipv6.routingTable interfaceTableModule "\"BasicNetwork.r1.interfaceTable\""
par BasicNetwork.r1.ipv6.routingTable ipv6TunnelingModule "\"BasicNetwork.r1.ipv6.iptunneling\""
par BasicNetwork.r1.ipv6.routingTable routes "<routingTable/> at content:1"
par BasicNetwork.r1.ipv6.routingTable forwarding true
par BasicNetwork.r1.ipv6.routingTable isRouter true
par BasicNetwork.r1.ipv6.routingTable multicastForwarding false
par BasicNetwork.r1.ipv6.routingTable useAdminDist false
par BasicNetwork.r1.ipv6.up typename "\"inet.common.MessageDispatcher\""
par BasicNetwork.r1.ipv6.up displayStringTextFormat "\"processed %p pk (%l)\""
attr mutable ""
par BasicNetwork.r1.ipv6.up interfaceTableModule "\"BasicNetwork.r1.interfaceTable\""
par BasicNetwork.r1.ipv6.up forwardServiceRegistration true
par BasicNetwork.r1.ipv6.up forwardProtocolRegistration true
par BasicNetwork.r1.ipv6.up interfaceMapping {}
par BasicNetwork.r1.ipv6.up serviceMapping {}
par BasicNetwork.r1.ipv6.up protocolMapping {}
par BasicNetwork.r1.ipv6.icmpv6 typename "\"inet.networklayer.icmpv6.Icmpv6\""
par BasicNetwork.r1.ipv6.icmpv6 displayStringTextFormat "\"\""
attr mutable ""
par BasicNetwork.r1.ipv6.icmpv6 interfaceTableModule "\"BasicNetwork.r1.interfaceTable\""
par BasicNetwork.r1.ipv6.icmpv6 checksumMode "\"declared\""
attr enum declared,computed
par BasicNetwork.r1.ipv6.lp typename "\"inet.common.MessageDispatcher\""
par BasicNetwork.r1.ipv6.lp displayStringTextFormat "\"processed %p pk (%l)\""
attr mutable ""
par BasicNetwork.r1.ipv6.lp interfaceTableModule "\"BasicNetwork.r1.interfaceTable\""
par BasicNetwork.r1.ipv6.lp forwardServiceRegistration true
par BasicNetwork.r1.ipv6.lp forwardProtocolRegistration true
par BasicNetwork.r1.ipv6.lp interfaceMapping {}
par BasicNetwork.r1.ipv6.lp serviceMapping {}
par BasicNetwork.r1.ipv6.lp protocolMapping {}
par BasicNetwork.r1.ipv6.neighbourDiscovery typename "\"inet.networklayer.icmpv6.Ipv6NeighbourDiscovery\""
par BasicNetwork.r1.ipv6.neighbourDiscovery displayStringTextFormat "\"\""
attr mutable ""
par BasicNetwork.r1.ipv6.neighbourDiscovery interfaceTableModule "\"BasicNetwork.r1.interfaceTable\""
par BasicNetwork.r1.ipv6.neighbourDiscovery checksumMode "\"declared\""
attr enum declared,computed
par BasicNetwork.r1.ipv6.neighbourDiscovery icmpv6Module "\"BasicNetwork.r1.ipv6.icmpv6\""
par BasicNetwork.r1.ipv6.neighbourDiscovery xmipv6Module "\"\""
par BasicNetwork.r1.ipv6.neighbourDiscovery routingTableModule "\"BasicNetwork.r1.ipv6.routingTable\""
par BasicNetwork.r1.ipv6.neighbourDiscovery minIntervalBetweenRAs 0.03s
attr unit s
par BasicNetwork.r1.ipv6.neighbourDiscovery maxIntervalBetweenRAs 0.07s
attr unit s
scalar BasicNetwork.r1.ipv6.neighbourDiscovery startDad:count 2
attr recordingmode count
attr title "DAD started, count"
par BasicNetwork.r1.ipv6.ipv6 typename "\"inet.networklayer.ipv6.Ipv6\""
par BasicNetwork.r1.ipv6.ipv6 displayStringTextFormat "\"\""
attr mutable ""
par BasicNetwork.r1.ipv6.ipv6 interfaceTableModule "\"BasicNetwork.r1.interfaceTable\""
par BasicNetwork.r1.ipv6.ipv6 routingTableModule "\"BasicNetwork.r1.ipv6.routingTable\""
par BasicNetwork.r1.ipv6.ipv6 ipv6NeighbourDiscoveryModule "\"BasicNetwork.r1.ipv6.neighbourDiscovery\""
par BasicNetwork.r1.ipv6.ipv6 icmpv6Module "\"BasicNetwork.r1.ipv6.icmpv6\""
par BasicNetwork.r1.ipv6.ipv6 ipv6TunnelingModule "\"BasicNetwork.r1.ipv6.iptunneling\""
par BasicNetwork.r1.ipv6.ipv6 procDelay 0s
attr unit s
par BasicNetwork.r1.ipv6.iptunneling typename "\"inet.networklayer.ipv6tunneling.Ipv6Tunneling\""
par BasicNetwork.r1.ipv6.iptunneling displayStringTextFormat "\"\""
attr mutable ""
par BasicNetwork.r1.ipv6.iptunneling interfaceTableModule "\"BasicNetwork.r1.interfaceTable\""
par BasicNetwork.r1.ipv6.iptunneling routingTableModule "\"BasicNetwork.r1.ipv6.routingTable\""
par BasicNetwork.r1.ipv6.iptunneling xmipv6Module "\"\""
par BasicNetwork.r1.ipv6 typename "\"inet.networklayer.ipv6.Ipv6NetworkLayer\""
par BasicNetwork.r1.ipv6 xMIPv6Support false
par BasicNetwork.r1.ipv6 forwarding true
par BasicNetwork.r1.ipv6 multicastForwarding false
par BasicNetwork.r1.ipv6 interfaceTableModule "\"BasicNetwork.r1.interfaceTable\""
par BasicNetwork.r1.nl typename "\"inet.common.MessageDispatcher\""
par BasicNetwork.r1.nl displayStringTextFormat "\"processed %p pk (%l)\""
attr mutable ""
par BasicNetwork.r1.nl interfaceTableModule "\"BasicNetwork.r1.interfaceTable\""
par BasicNetwork.r1.nl forwardServiceRegistration true
par BasicNetwork.r1.nl forwardProtocolRegistration true
par BasicNetwork.r1.nl interfaceMapping {}
par BasicNetwork.r1.nl serviceMapping {}
par BasicNetwork.r1.nl protocolMapping {}
par BasicNetwork.r1.tn typename "\"inet.common.MessageDispatcher\""
par BasicNetwork.r1.tn displayStringTextFormat "\"processed %p pk (%l)\""
attr mutable ""
par BasicNetwork.r1.tn interfaceTableModule "\"BasicNetwork.r1.interfaceTable\""
par BasicNetwork.r1.tn forwardServiceRegistration true
par BasicNetwork.r1.tn forwardProtocolRegistration true
par BasicNetwork.r1.tn interfaceMapping {}
par BasicNetwork.r1.tn serviceMapping {}
par BasicNetwork.r1.tn protocolMapping {}
par BasicNetwork.r1.at typename "\"inet.common.MessageDispatcher\""
par BasicNetwork.r1.at displayStringTextFormat "\"processed %p pk (%l)\""
attr mutable ""
par BasicNetwork.r1.at interfaceTableModule "\"BasicNetwork.r1.interfaceTable\""
par BasicNetwork.r1.at forwardServiceRegistration true
par BasicNetwork.r1.at forwardProtocolRegistration true
par BasicNetwork.r1.at interfaceMapping {}
par BasicNetwork.r1.at serviceMapping {}
par BasicNetwork.r1.at protocolMapping {}
par BasicNetwork.r1 typename "\"inet.node.inet.Router\""
par BasicNetwork.r1 displayStringTextFormat "\"\""
attr mutable ""
par BasicNetwork.r1 hasStatus false
par BasicNetwork.r1 hasEnvironment false
par BasicNetwork.r1 osgModel "\"\""
par BasicNetwork.r1 osgModelColor "\"\""
par BasicNetwork.r1 canvasImage "\"\""
par BasicNetwork.r1 canvasImageColor "\"\""
par BasicNetwork.r1 recordPcap false
par BasicNetwork.r1 numPcapRecorders 0
par BasicNetwork.r1 numLoInterfaces 1
par BasicNetwork.r1 numWlanInterfaces 0
par BasicNetwork.r1 numEthInterfaces 0
par BasicNetwork.r1 numPppInterfaces 0
par BasicNetwork.r1 numTunInterfaces 0
par BasicNetwork.r1 numVirtInterfaces 0
par BasicNetwork.r1 fcsMode "\"declared\""
attr enum declared,computed
par BasicNetwork.r1 hasIpv4 false
par BasicNetwork.r1 hasIpv6 true
par BasicNetwork.r1 hasGn false
par BasicNetwork.r1 forwarding true
par BasicNetwork.r1 multicastForwarding false
par BasicNetwork.r1 hasUdp false
par BasicNetwork.r1 hasTcp false
par BasicNetwork.r1 hasSctp false
par BasicNetwork.r1 hasQuic false
par BasicNetwork.r1 numApps 0
par BasicNetwork.r1 hasEigrp false
par BasicNetwork.r1 hasOspf false
par BasicNetwork.r1 hasRip false
par BasicNetwork.r1 hasBgp false
par BasicNetwork.r1 hasPim false
par BasicNetwork.r1 hasDhcp false
par BasicNetwork.r2.ethg$i[0].channel typename "\"ned.IdealChannel\""
par BasicNetwork.r2.eth[0].phys$o.channel typename "\"ned.IdealChannel\""
par BasicNetwork.r2.ethg$i[1].channel typename "\"ned.IdealChannel\""
par BasicNetwork.r2.eth[1].phys$o.channel typename "\"ned.IdealChannel\""
par BasicNetwork.r2.ethg$i[2].channel typename "\"ned.IdealChannel\""
par BasicNetwork.r2.eth[2].phys$o.channel typename "\"ned.IdealChannel\""
par BasicNetwork.r2.interfaceTable typename "\"inet.networklayer.common.InterfaceTable\""
par BasicNetwork.r2.interfaceTable displayStringTextFormat "\"\""
attr mutable ""
par BasicNetwork.r2.interfaceTable displayAddresses false
par BasicNetwork.r2.cb typename "\"inet.common.MessageDispatcher\""
par BasicNetwork.r2.cb displayStringTextFormat "\"processed %p pk (%l)\""
attr mutable ""
par BasicNetwork.r2.cb interfaceTableModule "\"BasicNetwork.r2.interfaceTable\""
par BasicNetwork.r2.cb forwardServiceRegistration true
par BasicNetwork.r2.cb forwardProtocolRegistration true
par BasicNetwork.r2.cb interfaceMapping {}
par BasicNetwork.r2.cb serviceMapping {}
par BasicNetwork.r2.cb protocolMapping {}
par BasicNetwork.r2.bl typename "\"inet.common.MessageDispatcher\""
par BasicNetwork.r2.bl displayStringTextFormat "\"processed %p pk (%l)\""
attr mutable ""
par BasicNetwork.r2.bl interfaceTableModule "\"BasicNetwork.r2.interfaceTable\""
par BasicNetwork.r2.bl forwardServiceRegistration true
par BasicNetwork.r2.bl forwardProtocolRegistration true
par BasicNetwork.r2.bl interfaceMapping {}
par BasicNetwork.r2.bl serviceMapping {}
par BasicNetwork.r2.bl protocolMapping {}
par BasicNetwork.r2.ethernet typename "\"inet.linklayer.ethernet.basic.EthernetEncapsulation\""
par BasicNetwork.r2.ethernet displayStringTextFormat "\"\""
attr mutable ""
par BasicNetwork.r2.ethernet registerProtocol true
par BasicNetwork.r2.ethernet interfaceTableModule "\"BasicNetwork.r2.interfaceTable\""
par BasicNetwork.r2.ethernet fcsMode "\"declared\""
attr enum declared,computed
par BasicNetwork.r2.ethernet stopOperationExtraTime -1s
attr unit s
par BasicNetwork.r2.ethernet stopOperationTimeout 2s
attr unit s
scalar BasicNetwork.r2.ethernet pauseSent:count 0
attr recordingmode count
attr title "pause sent, count"
scalar BasicNetwork.r2.ethernet pauseSent:sum 0
attr recordingmode sum
attr title "pause sent, sum"
scalar BasicNetwork.r2.ethernet decapPk:count 3
attr interpolationmode none
attr recordingmode count
attr source decapPk
attr title "packets decapsulated, count"
scalar BasicNetwork.r2.ethernet decapPk:sum(packetBytes) 192
attr interpolationmode none
attr recordingmode sum(packetBytes)
attr source decapPk
attr title "packets decapsulated, sum(packetBytes)"
scalar BasicNetwork.r2.ethernet encapPk:count 3
attr interpolationmode none
attr recordingmode count
attr source encapPk
attr title "packets encapsulated, count"
scalar BasicNetwork.r2.ethernet encapPk:sum(packetBytes) 192
attr interpolationmode none
attr recordingmode sum(packetBytes)
attr source encapPk
attr title "packets encapsulated, sum(packetBytes)"
par BasicNetwork.r2.li typename "\"inet.common.MessageDispatcher\""
par BasicNetwork.r2.li displayStringTextFormat "\"processed %p pk (%l)\""
attr mutable ""
par BasicNetwork.r2.li interfaceTableModule "\"BasicNetwork.r2.interfaceTable\""
par BasicNetwork.r2.li forwardServiceRegistration true
par BasicNetwork.r2.li forwardProtocolRegistration true
par BasicNetwork.r2.li interfaceMapping {}
par BasicNetwork.r2.li serviceMapping {}
par BasicNetwork.r2.li protocolMapping {}
par BasicNetwork.r2.lo[0].upperLayerIn.channel typename "\"ned.IdealChannel\""
par BasicNetwork.r2.lo[0].lo.upperLayerOut.channel typename "\"ned.IdealChannel\""
par BasicNetwork.r2.lo[0].lo typename "\"inet.linklayer.loopback.Loopback\""
par BasicNetwork.r2.lo[0].lo displayStringTextFormat "\"\""
attr mutable ""
par BasicNetwork.r2.lo[0].lo interfaceTableModule "\"BasicNetwork.r2.interfaceTable\""
par BasicNetwork.r2.lo[0].lo mtu 4470B
attr unit B
scalar BasicNetwork.r2.lo[0].lo rcvdPkFromHl:count 0
attr interpolationmode none
attr recordingmode count
attr source packetReceivedFromUpper
attr title "packets received from higher layer, count"
scalar BasicNetwork.r2.lo[0].lo rcvdPkFromHl:sum(packetBytes) 0
attr interpolationmode none
attr recordingmode sum(packetBytes)
attr source packetReceivedFromUpper
attr title "packets received from higher layer, sum(packetBytes)"
scalar BasicNetwork.r2.lo[0].lo passedUpPk:count 0
attr interpolationmode none
attr recordingmode count
attr source packetSentToUpper
attr title "packets passed to higher layer, count"
scalar BasicNetwork.r2.lo[0].lo passedUpPk:sum(packetBytes) 0
attr interpolationmode none
attr recordingmode sum(packetBytes)
attr source packetSentToUpper
attr title "packets passed to higher layer, sum(packetBytes)"
par BasicNetwork.r2.lo[0] typename "\"inet.linklayer.loopback.LoopbackInterface\""
par BasicNetwork.r2.lo[0] displayStringTextFormat "\"%a (%i)\\n%m\""
attr mutable ""
par BasicNetwork.r2.lo[0] recordPcap false
par BasicNetwork.r2.lo[0] numPcapRecorders 0
par BasicNetwork.r2.lo[0] interfaceTableModule "\"BasicNetwork.r2.interfaceTable\""
scalar BasicNetwork.r2.lo[0] packetDropInterfaceDown:count 0
attr interpolationmode none
attr recordingmode count
attr source packetDropReasonIsInterfaceDown(packetDropped)
attr title "packet drops: interface down, count"
scalar BasicNetwork.r2.lo[0] packetDropInterfaceDown:sum(packetBytes) 0
attr interpolationmode none
attr recordingmode sum(packetBytes)
attr source packetDropReasonIsInterfaceDown(packetDropped)
attr title "packet drops: interface down, sum(packetBytes)"
scalar BasicNetwork.r2.lo[0] packetDropNoCarrier:count 0
attr interpolationmode none
attr recordingmode count
attr source packetDropReasonIsNoCarrier(packetDropped)
attr title "packet drops: no carrier, count"
scalar BasicNetwork.r2.lo[0] packetDropNoCarrier:sum(packetBytes) 0
attr interpolationmode none
attr recordingmode sum(packetBytes)
attr source packetDropReasonIsNoCarrier(packetDropped)
attr title "packet drops: no carrier, sum(packetBytes)"
par BasicNetwork.r2.eth[0].mac.phys$o.channel typename "\"ned.IdealChannel\""
par BasicNetwork.r2.eth[0].phys$i.channel typename "\"ned.IdealChannel\""
par BasicNetwork.r2.eth[0].upperLayerIn.channel typename "\"ned.IdealChannel\""
par BasicNetwork.r2.eth[0].mac.upperLayerOut.channel typename "\"ned.IdealChannel\""
par BasicNetwork.r2.eth[0].queue typename "\"inet.linklayer.ethernet.common.EthernetQueue\""
par BasicNetwork.r2.eth[0].queue displayStringTextFormat "\"contains %p pk (%l) pushed %u\\npulled %o removed %r dropped %d\""
attr mutable ""
par BasicNetwork.r2.eth[0].queue packetCapacity 1000
par BasicNetwork.r2.eth[0].queue dataCapacity -1b
attr unit b
par BasicNetwork.r2.eth[0].queue dropperClass "\"inet::queueing::PacketAtCollectionEndDropper\""
par BasicNetwork.r2.eth[0].queue comparatorClass "\"inet::EthernetFrameTypeComparator\""
par BasicNetwork.r2.eth[0].queue bufferModule "\"\""
scalar BasicNetwork.r2.eth[0].queue queueLength:last 0
attr autoWarmupFilter false
attr interpolationmode sample-hold
attr recordingmode last
attr source "warmup(atomic(constant0(packetPushEnded) + count(packetPushStarted) - count(packetPulled) - count(packetRemoved) - count(packetDropped)))"
attr title "queue length, last"
attr unit pk
scalar BasicNetwork.r2.eth[0].queue queueLength:max 0
attr autoWarmupFilter false
attr interpolationmode sample-hold
attr recordingmode max
attr source "warmup(atomic(constant0(packetPushEnded) + count(packetPushStarted) - count(packetPulled) - count(packetRemoved) - count(packetDropped)))"
attr title "queue length, max"
attr unit pk
scalar BasicNetwork.r2.eth[0].queue queueLength:timeavg 0
attr autoWarmupFilter false
attr interpolationmode sample-hold
attr recordingmode timeavg
attr source "warmup(atomic(constant0(packetPushEnded) + count(packetPushStarted) - count(packetPulled) - count(packetRemoved) - count(packetDropped)))"
attr title "queue length, timeavg"
attr unit pk
scalar BasicNetwork.r2.eth[0].queue queueBitLength:last 0
attr autoWarmupFilter false
attr interpolationmode sample-hold
attr recordingmode last
attr source "warmup(atomic(constant0(packetPushEnded) + sum(packetLength(packetPushStarted)) - sum(packetLength(packetPulled)) - sum(packetLength(packetRemoved)) - sum(packetLength(packetDropped))))"
attr title "queue bit length, last"
attr unit b
scalar BasicNetwork.r2.eth[0].queue queueBitLength:max 0
attr autoWarmupFilter false
attr interpolationmode sample-hold
attr recordingmode max
attr source "warmup(atomic(constant0(packetPushEnded) + sum(packetLength(packetPushStarted)) - sum(packetLength(packetPulled)) - sum(packetLength(packetRemoved)) - sum(packetLength(packetDropped))))"
attr title "queue bit length, max"
attr unit b
scalar BasicNetwork.r2.eth[0].queue queueBitLength:timeavg 0
attr autoWarmupFilter false
attr interpolationmode sample-hold
attr recordingmode timeavg
attr source "warmup(atomic(constant0(packetPushEnded) + sum(packetLength(packetPushStarted)) - sum(packetLength(packetPulled)) - sum(packetLength(packetRemoved)) - sum(packetLength(packetDropped))))"
attr title "queue bit length, timeavg"
attr unit b
statistic BasicNetwork.r2.eth[0].queue queueingTime:histogram
field count 1
field mean 0
field stddev nan
field min 0
field max 0
field sum 0
field sqrsum 0
attr interpolationmode none
attr recordingmode histogram
attr source queueingTime(packetPulled)
attr title "queueing times"
attr unit s
bin	-inf	0
bin	-0.5	0
bin	-0.48	0
bin	-0.46	0
bin	-0.44	0
bin	-0.42	0
bin	-0.4	0
bin	-0.38	0
bin	-0.36	0
bin	-0.34	0
bin	-0.32	0
bin	-0.3	0
bin	-0.28	0
bin	-0.26	0
bin	-0.24	0
bin	-0.22	0
bin	-0.2	0
bin	-0.18	0
bin	-0.16	0
bin	-0.14	0
bin	-0.12	0
bin	-0.1	0
bin	-0.08	0
bin	-0.06	0
bin	-0.04	0
bin	-0.02	0
bin	0	1
bin	0.02	0
bin	0.04	0
bin	0.06	0
bin	0.08	0
bin	0.1	0
bin	0.12	0
bin	0.14	0
bin	0.16	0
bin	0.18	0
bin	0.2	0
bin	0.22	0
bin	0.24	0
bin	0.26	0
bin	0.28	0
bin	0.3	0
bin	0.32	0
bin	0.34	0
bin	0.36	0
bin	0.38	0
bin	0.4	0
bin	0.42	0
bin	0.44	0
bin	0.46	0
bin	0.48	0
bin	0.5	0
scalar BasicNetwork.r2.eth[0].queue outgoingPackets:count 1
attr recordingmode count
attr source packetPulled
attr title "outgoing packets, count"
attr unit pk
scalar BasicNetwork.r2.eth[0].queue outgoingPacketLengths:sum 656
attr interpolationmode none
attr recordingmode sum
attr source packetLength(packetPulled)
attr title "outgoing packet lengths, sum"
attr unit b
statistic BasicNetwork.r2.eth[0].queue outgoingPacketLengths:histogram
field count 1
field mean 656
field stddev nan
field min 656
field max 656
field sum 656
field sqrsum 430336
attr interpolationmode none
attr recordingmode histogram
attr source packetLength(packetPulled)
attr title "outgoing packet lengths"
attr unit b
bin	-inf	0
bin	655	0
bin	656	1
bin	657	0
statistic BasicNetwork.r2.eth[0].queue flowQueueingTime:histogram
field count 0
field mean -nan
field stddev nan
field min nan
field max nan
field sum 0
field sqrsum 0
attr interpolationmode none
attr recordingmode histogram
attr source queueingTime(demuxFlow(packetPulled))
attr title "flow queueing times"
attr unit s
bin	-inf	0
bin	0	0
bin	1	0
scalar BasicNetwork.r2.eth[0].queue incomingPackets:count 1
attr recordingmode count
attr source packetPushStarted
attr title "incoming packets, count"
attr unit pk
scalar BasicNetwork.r2.eth[0].queue incomingPacketLengths:sum 656
attr interpolationmode none
attr recordingmode sum
attr source packetLength(packetPushStarted)
attr title "incoming packet lengths, sum"
attr unit b
statistic BasicNetwork.r2.eth[0].queue incomingPacketLengths:histogram
field count 1
field mean 656
field stddev nan
field min 656
field max 656
field sum 656
field sqrsum 430336
attr interpolationmode none
attr recordingmode histogram
attr source packetLength(packetPushStarted)
attr title "incoming packet lengths"
attr unit b
bin	-inf	0
bin	655	0
bin	656	1
bin	657	0
scalar BasicNetwork.r2.eth[0].queue droppedPacketsQueueOverflow:count 0
attr interpolationmode none
attr recordingmode count
attr source packetDropReasonIsQueueOverflow(packetDropped)
attr title "dropped packets: queue overflow, count"
attr unit pk
scalar BasicNetwork.r2.eth[0].queue droppedPacketLengthsQueueOverflow:sum 0
attr interpolationmode none
attr recordingmode sum
attr source packetLength(packetDropReasonIsQueueOverflow(packetDropped))
attr title "dropped packet lengths: queue overflow, sum"
attr unit b
par BasicNetwork.r2.eth[0].mac typename "\"inet.linklayer.ethernet.basic.EthernetMacPhy\""
par BasicNetwork.r2.eth[0].mac displayStringTextFormat "\"rate: %b\\nsent: %s, rcvd: %r\\nqueue: %q, drop: %d\""
attr mutable ""
par BasicNetwork.r2.eth[0].mac interfaceTableModule "\"BasicNetwork.r2.interfaceTable\""
par BasicNetwork.r2.eth[0].mac sendRawBytes false
par BasicNetwork.r2.eth[0].mac promiscuous false
par BasicNetwork.r2.eth[0].mac duplexMode true
par BasicNetwork.r2.eth[0].mac allowNonstandardBitrate false
par BasicNetwork.r2.eth[0].mac receptionMode "\"auto\""
attr enum onStart,auto,onEnd,forceOnEnd
par BasicNetwork.r2.eth[0].mac mtu 1500B
attr unit B
par BasicNetwork.r2.eth[0].mac fcsMode "\"declared\""
attr enum declared,computed
par BasicNetwork.r2.eth[0].mac stopOperationExtraTime -1s
attr unit s
par BasicNetwork.r2.eth[0].mac stopOperationTimeout 2s
attr unit s
scalar BasicNetwork.r2.eth[0].mac "simulated time" 2.483268590423
scalar BasicNetwork.r2.eth[0].mac full-duplex 1
scalar BasicNetwork.r2.eth[0].mac "frames/sec sent" 0.40269506240952
scalar BasicNetwork.r2.eth[0].mac "frames/sec rcvd" 0.40269506240952
scalar BasicNetwork.r2.eth[0].mac "bits/sec sent" 264.16796094065
scalar BasicNetwork.r2.eth[0].mac "bits/sec rcvd" 264.16796094065
scalar BasicNetwork.r2.eth[0].mac "rx channel idle (%)" 99.997100595551
scalar BasicNetwork.r2.eth[0].mac "rx channel utilization (%)" 0.0028994044493486
scalar BasicNetwork.r2.eth[0].mac rxPausePkUnits:count 0
attr interpolationmode none
attr recordingmode count
attr title "pause units received, count"
scalar BasicNetwork.r2.eth[0].mac rxPausePkUnits:sum 0
attr interpolationmode none
attr recordingmode sum
attr title "pause units received, sum"
scalar BasicNetwork.r2.eth[0].mac txPausePkUnits:count 0
attr interpolationmode none
attr recordingmode count
attr title "pause units sent, count"
scalar BasicNetwork.r2.eth[0].mac txPausePkUnits:sum 0
attr interpolationmode none
attr recordingmode sum
attr title "pause units sent, sum"
scalar BasicNetwork.r2.eth[0].mac rxPkOk:count 1
attr interpolationmode none
attr recordingmode count
attr source rxPkOk
attr title "packets received OK, count"
scalar BasicNetwork.r2.eth[0].mac rxPkOk:sum(packetBytes) 82
attr interpolationmode none
attr recordingmode sum(packetBytes)
attr source rxPkOk
attr title "packets received OK, sum(packetBytes)"
statistic BasicNetwork.r2.eth[0].mac throughput:histogram
field count 25
field mean 288
field stddev 1440
field min 0
field max 7200
field sum 7200
field sqrsum 51840000
attr interpolationmode linear
attr recordingmode histogram
attr source throughput(transmissionEnded)
attr title throughput
attr unit bps
bin	-inf	0
bin	0	24
bin	200	0
bin	400	0
bin	600	0
bin	800	0
bin	1000	0
bin	1200	0
bin	1400	0
bin	1600	0
bin	1800	0
bin	2000	0
bin	2200	0
bin	2400	0
bin	2600	0
bin	2800	0
bin	3000	0
bin	3200	0
bin	3400	0
bin	3600	0
bin	3800	0
bin	4000	0
bin	4200	0
bin	4400	0
bin	4600	0
bin	4800	0
bin	5000	0
bin	5200	0
bin	5400	0
bin	5600	0
bin	5800	0
bin	6000	0
bin	6200	0
bin	6400	0
bin	6600	0
bin	6800	0
bin	7000	0
bin	7200	1
bin	7400	0
bin	7600	0
bin	7800	0
bin	8000	0
bin	8200	0
bin	8400	0
bin	8600	0
bin	8800	0
bin	9000	0
bin	9200	0
statistic BasicNetwork.r2.eth[0].mac utilization:histogram
field count 25
field mean 0.00288
field stddev 0.0144
field min 0
field max 0.072
field sum 0.072
field sqrsum 0.005184
attr interpolationmode linear
attr recordingmode histogram
attr source "100 * utilization(count(transmissionStarted) - count(transmissionEnded))"
attr title utilization
attr unit %
bin	-inf	0
bin	0	24
bin	0.002	0
bin	0.004	0
bin	0.006	0
bin	0.008	0
bin	0.01	0
bin	0.012	0
bin	0.014	0
bin	0.016	0
bin	0.018	0
bin	0.02	0
bin	0.022	0
bin	0.024	0
bin	0.026	0
bin	0.028	0
bin	0.03	0
bin	0.032	0
bin	0.034	0
bin	0.036	0
bin	0.038	0
bin	0.04	0
bin	0.042	0
bin	0.044	0
bin	0.046	0
bin	0.048	0
bin	0.05	0
bin	0.052	0
bin	0.054	0
bin	0.056	0
bin	0.058	0
bin	0.06	0
bin	0.062	0
bin	0.064	0
bin	0.066	0
bin	0.068	0
bin	0.07	0
bin	0.072	1
bin	0.074	0
bin	0.076	0
bin	0.078	0
bin	0.08	0
bin	0.082	0
bin	0.084	0
bin	0.086	0
bin	0.088	0
bin	0.09	0
bin	0.092	0
scalar BasicNetwork.r2.eth[0].mac txPk:count 1
attr interpolationmode none
attr recordingmode count
attr source packetSentToLower
attr title "packets transmitted, count"
scalar BasicNetwork.r2.eth[0].mac txPk:sum(packetBytes) 82
attr interpolationmode none
attr recordingmode sum(packetBytes)
attr source packetSentToLower
attr title "packets transmitted, sum(packetBytes)"
scalar BasicNetwork.r2.eth[0].mac packetReceivedFromUpper:count 1
attr interpolationmode none
attr recordingmode count
attr source packetReceivedFromUpper
attr title "packet bytes from higher layer, count"
scalar BasicNetwork.r2.eth[0].mac packetReceivedFromUpper:sum(packetBytes) 82
attr interpolationmode none
attr recordingmode sum(packetBytes)
attr source packetReceivedFromUpper
attr title "packet bytes from higher layer, sum(packetBytes)"
scalar BasicNetwork.r2.eth[0].mac passedUpPk:count 1
attr interpolationmode none
attr recordingmode count
attr source packetSentToUpper
attr title "packets passed to higher layer, count"
scalar BasicNetwork.r2.eth[0].mac passedUpPk:sum(packetBytes) 82
attr interpolationmode none
attr recordingmode sum(packetBytes)
attr source packetSentToUpper
attr title "packets passed to higher layer, sum(packetBytes)"
scalar BasicNetwork.r2.eth[0].mac packetDropIncorrectlyReceived:count 0
attr interpolationmode none
attr recordingmode count
attr source packetDropReasonIsIncorrectlyReceived(packetDropped)
attr title "packet drop: incorrectly received, count"
scalar BasicNetwork.r2.eth[0].mac packetDropIncorrectlyReceived:sum(packetBytes) 0
attr interpolationmode none
attr recordingmode sum(packetBytes)
attr source packetDropReasonIsIncorrectlyReceived(packetDropped)
attr title "packet drop: incorrectly received, sum(packetBytes)"
scalar BasicNetwork.r2.eth[0].mac packetDropInterfaceDown:count 0
attr interpolationmode none
attr recordingmode count
attr source packetDropReasonIsInterfaceDown(packetDropped)
attr title "packet drop: interface down, count"
scalar BasicNetwork.r2.eth[0].mac packetDropInterfaceDown:sum(packetBytes) 0
attr interpolationmode none
attr recordingmode sum(packetBytes)
attr source packetDropReasonIsInterfaceDown(packetDropped)
attr title "packet drop: interface down, sum(packetBytes)"
scalar BasicNetwork.r2.eth[0].mac packetDropNotAddressedToUs:count 0
attr interpolationmode none
attr recordingmode count
attr source packetDropReasonIsNotAddressedToUs(packetDropped)
attr title "packet drop: not addressed to us, count"
scalar BasicNetwork.r2.eth[0].mac packetDropNotAddressedToUs:sum(packetBytes) 0
attr interpolationmode none
attr recordingmode sum(packetBytes)
attr source packetDropReasonIsNotAddressedToUs(packetDropped)
attr title "packet drop: not addressed to us, sum(packetBytes)"
par BasicNetwork.r2.eth[0] typename "\"inet.linklayer.ethernet.basic.EthernetInterface\""
par BasicNetwork.r2.eth[0] displayStringTextFormat "\"%a (%i)\\n%m\""
attr mutable ""
par BasicNetwork.r2.eth[0] recordPcap false
par BasicNetwork.r2.eth[0] numPcapRecorders 0
par BasicNetwork.r2.eth[0] interfaceTableModule "\"BasicNetwork.r2.interfaceTable\""
par BasicNetwork.r2.eth[0] protocol "\"ethernetmac\""
par BasicNetwork.r2.eth[0] address "\"0A-AA-00-00-00-03\""
attr mutable ""
par BasicNetwork.r2.eth[0] duplexMode true
par BasicNetwork.r2.eth[0] csmacdSupport false
par BasicNetwork.r2.eth[0] bitrate 0bps
attr unit bps
par BasicNetwork.r2.eth[0] fcsMode "\"declared\""
attr enum declared,computed
scalar BasicNetwork.r2.eth[0] packetDropInterfaceDown:count 0
attr interpolationmode none
attr recordingmode count
attr source packetDropReasonIsInterfaceDown(packetDropped)
attr title "packet drops: interface down, count"
scalar BasicNetwork.r2.eth[0] packetDropInterfaceDown:sum(packetBytes) 0
attr interpolationmode none
attr recordingmode sum(packetBytes)
[...]
scalar BasicNetwork.server2.eth[0].mac "bits/sec rcvd" 264.16796094065
scalar BasicNetwork.server2.eth[0].mac "rx channel idle (%)" 99.999710059555
scalar BasicNetwork.server2.eth[0].mac "rx channel utilization (%)" 0.00028994044493486
scalar BasicNetwork.server2.eth[0].mac rxPausePkUnits:count 0
attr interpolationmode none
attr recordingmode count
attr title "pause units received, count"
scalar BasicNetwork.server2.eth[0].mac rxPausePkUnits:sum 0
attr interpolationmode none
attr recordingmode sum
attr title "pause units received, sum"
scalar BasicNetwork.server2.eth[0].mac txPausePkUnits:count 0
attr interpolationmode none
attr recordingmode count
attr title "pause units sent, count"
scalar BasicNetwork.server2.eth[0].mac txPausePkUnits:sum 0
attr interpolationmode none
attr recordingmode sum
attr title "pause units sent, sum"
scalar BasicNetwork.server2.eth[0].mac rxPkOk:count 1
attr interpolationmode none
attr recordingmode count
attr source rxPkOk
attr title "packets received OK, count"
scalar BasicNetwork.server2.eth[0].mac rxPkOk:sum(packetBytes) 82
attr interpolationmode none
attr recordingmode sum(packetBytes)
attr source rxPkOk
attr title "packets received OK, sum(packetBytes)"
statistic BasicNetwork.server2.eth[0].mac throughput:histogram
field count 25
field mean 288
field stddev 1440
field min 0
field max 7200
field sum 7200
field sqrsum 51840000
attr interpolationmode linear
attr recordingmode histogram
attr source throughput(transmissionEnded)
attr title throughput
attr unit bps
bin	-inf	0
bin	0	24
bin	200	0
bin	400	0
bin	600	0
bin	800	0
bin	1000	0
bin	1200	0
bin	1400	0
bin	1600	0
bin	1800	0
bin	2000	0
bin	2200	0
bin	2400	0
bin	2600	0
bin	2800	0
bin	3000	0
bin	3200	0
bin	3400	0
bin	3600	0
bin	3800	0
bin	4000	0
bin	4200	0
bin	4400	0
bin	4600	0
bin	4800	0
bin	5000	0
bin	5200	0
bin	5400	0
bin	5600	0
bin	5800	0
bin	6000	0
bin	6200	0
bin	6400	0
bin	6600	0
bin	6800	0
bin	7000	0
bin	7200	1
bin	7400	0
bin	7600	0
bin	7800	0
bin	8000	0
bin	8200	0
bin	8400	0
bin	8600	0
bin	8800	0
bin	9000	0
bin	9200	0
statistic BasicNetwork.server2.eth[0].mac utilization:histogram
field count 25
field mean 0.000288
field stddev 0.00144
field min 0
field max 0.0072
field sum 0.0072
field sqrsum 5.184e-05
attr interpolationmode linear
attr recordingmode histogram
attr source "100 * utilization(count(transmissionStarted) - count(transmissionEnded))"
attr title utilization
attr unit %
bin	-inf	0
bin	0	24
bin	0.0002	0
bin	0.0004	0
bin	0.0006	0
bin	0.0008	0
bin	0.001	0
bin	0.0012	0
bin	0.0014	0
bin	0.0016	0
bin	0.0018	0
bin	0.002	0
bin	0.0022	0
bin	0.0024	0
bin	0.0026	0
bin	0.0028	0
bin	0.003	0
bin	0.0032	0
bin	0.0034	0
bin	0.0036	0
bin	0.0038	0
bin	0.004	0
bin	0.0042	0
bin	0.0044	0
bin	0.0046	0
bin	0.0048	0
bin	0.005	0
bin	0.0052	0
bin	0.0054	0
bin	0.0056	0
bin	0.0058	0
bin	0.006	0
bin	0.0062	0
bin	0.0064	0
bin	0.0066	0
bin	0.0068	0
bin	0.007	1
bin	0.0072	0
bin	0.0074	0
bin	0.0076	0
bin	0.0078	0
bin	0.008	0
bin	0.0082	0
bin	0.0084	0
bin	0.0086	0
bin	0.0088	0
bin	0.009	0
scalar BasicNetwork.server2.eth[0].mac txPk:count 1
attr interpolationmode none
attr recordingmode count
attr source packetSentToLower
attr title "packets transmitted, count"
scalar BasicNetwork.server2.eth[0].mac txPk:sum(packetBytes) 82
attr interpolationmode none
attr recordingmode sum(packetBytes)
attr source packetSentToLower
attr title "packets transmitted, sum(packetBytes)"
scalar BasicNetwork.server2.eth[0].mac packetReceivedFromUpper:count 1
attr interpolationmode none
attr recordingmode count
attr source packetReceivedFromUpper
attr title "packet bytes from higher layer, count"
scalar BasicNetwork.server2.eth[0].mac packetReceivedFromUpper:sum(packetBytes) 82
attr interpolationmode none
attr recordingmode sum(packetBytes)
attr source packetReceivedFromUpper
attr title "packet bytes from higher layer, sum(packetBytes)"
scalar BasicNetwork.server2.eth[0].mac passedUpPk:count 1
attr interpolationmode none
attr recordingmode count
attr source packetSentToUpper
attr title "packets passed to higher layer, count"
scalar BasicNetwork.server2.eth[0].mac passedUpPk:sum(packetBytes) 82
attr interpolationmode none
attr recordingmode sum(packetBytes)
attr source packetSentToUpper
attr title "packets passed to higher layer, sum(packetBytes)"
scalar BasicNetwork.server2.eth[0].mac packetDropIncorrectlyReceived:count 0
attr interpolationmode none
attr recordingmode count
attr source packetDropReasonIsIncorrectlyReceived(packetDropped)
attr title "packet drop: incorrectly received, count"
scalar BasicNetwork.server2.eth[0].mac packetDropIncorrectlyReceived:sum(packetBytes) 0
attr interpolationmode none
attr recordingmode sum(packetBytes)
attr source packetDropReasonIsIncorrectlyReceived(packetDropped)
attr title "packet drop: incorrectly received, sum(packetBytes)"
scalar BasicNetwork.server2.eth[0].mac packetDropInterfaceDown:count 0
attr interpolationmode none
attr recordingmode count
attr source packetDropReasonIsInterfaceDown(packetDropped)
attr title "packet drop: interface down, count"
scalar BasicNetwork.server2.eth[0].mac packetDropInterfaceDown:sum(packetBytes) 0
attr interpolationmode none
attr recordingmode sum(packetBytes)
attr source packetDropReasonIsInterfaceDown(packetDropped)
attr title "packet drop: interface down, sum(packetBytes)"
scalar BasicNetwork.server2.eth[0].mac packetDropNotAddressedToUs:count 0
attr interpolationmode none
attr recordingmode count
attr source packetDropReasonIsNotAddressedToUs(packetDropped)
attr title "packet drop: not addressed to us, count"
scalar BasicNetwork.server2.eth[0].mac packetDropNotAddressedToUs:sum(packetBytes) 0
attr interpolationmode none
attr recordingmode sum(packetBytes)
attr source packetDropReasonIsNotAddressedToUs(packetDropped)
attr title "packet drop: not addressed to us, sum(packetBytes)"
par BasicNetwork.server2.eth[0] typename "\"inet.linklayer.ethernet.basic.EthernetInterface\""
par BasicNetwork.server2.eth[0] displayStringTextFormat "\"%a (%i)\\n%m\""
attr mutable ""
par BasicNetwork.server2.eth[0] recordPcap false
par BasicNetwork.server2.eth[0] numPcapRecorders 0
par BasicNetwork.server2.eth[0] interfaceTableModule "\"BasicNetwork.server2.interfaceTable\""
par BasicNetwork.server2.eth[0] protocol "\"ethernetmac\""
par BasicNetwork.server2.eth[0] address "\"0A-AA-00-00-00-12\""
attr mutable ""
par BasicNetwork.server2.eth[0] duplexMode true
par BasicNetwork.server2.eth[0] csmacdSupport false
par BasicNetwork.server2.eth[0] bitrate 0bps
attr unit bps
par BasicNetwork.server2.eth[0] fcsMode "\"declared\""
attr enum declared,computed
scalar BasicNetwork.server2.eth[0] packetDropInterfaceDown:count 0
attr interpolationmode none
attr recordingmode count
attr source packetDropReasonIsInterfaceDown(packetDropped)
attr title "packet drops: interface down, count"
scalar BasicNetwork.server2.eth[0] packetDropInterfaceDown:sum(packetBytes) 0
attr interpolationmode none
attr recordingmode sum(packetBytes)
attr source packetDropReasonIsInterfaceDown(packetDropped)
attr title "packet drops: interface down, sum(packetBytes)"
scalar BasicNetwork.server2.eth[0] packetDropNoCarrier:count 0
attr interpolationmode none
attr recordingmode count
attr source packetDropReasonIsNoCarrier(packetDropped)
attr title "packet drops: no carrier, count"
scalar BasicNetwork.server2.eth[0] packetDropNoCarrier:sum(packetBytes) 0
attr interpolationmode none
attr recordingmode sum(packetBytes)
attr source packetDropReasonIsNoCarrier(packetDropped)
attr title "packet drops: no carrier, sum(packetBytes)"
par BasicNetwork.server2.ipv6.transportIn.channel typename "\"ned.IdealChannel\""
par BasicNetwork.server2.ipv6.up.out[0].channel typename "\"ned.IdealChannel\""
par BasicNetwork.server2.ipv6.ipv6.queueOut.channel typename "\"ned.IdealChannel\""
par BasicNetwork.server2.ipv6.ifIn.channel typename "\"ned.IdealChannel\""
par BasicNetwork.server2.ipv6.routingTable typename "\"inet.networklayer.ipv6.Ipv6RoutingTable\""
par BasicNetwork.server2.ipv6.routingTable displayStringTextFormat "\"\""
attr mutable ""
par BasicNetwork.server2.ipv6.routingTable interfaceTableModule "\"BasicNetwork.server2.interfaceTable\""
par BasicNetwork.server2.ipv6.routingTable ipv6TunnelingModule "\"BasicNetwork.server2.ipv6.iptunneling\""
par BasicNetwork.server2.ipv6.routingTable routes "<routingTable/> at content:1"
par BasicNetwork.server2.ipv6.routingTable forwarding false
par BasicNetwork.server2.ipv6.routingTable isRouter false
par BasicNetwork.server2.ipv6.routingTable multicastForwarding false
par BasicNetwork.server2.ipv6.routingTable useAdminDist false
par BasicNetwork.server2.ipv6.up typename "\"inet.common.MessageDispatcher\""
par BasicNetwork.server2.ipv6.up displayStringTextFormat "\"processed %p pk (%l)\""
attr mutable ""
par BasicNetwork.server2.ipv6.up interfaceTableModule "\"BasicNetwork.server2.interfaceTable\""
par BasicNetwork.server2.ipv6.up forwardServiceRegistration true
par BasicNetwork.server2.ipv6.up forwardProtocolRegistration true
par BasicNetwork.server2.ipv6.up interfaceMapping {}
par BasicNetwork.server2.ipv6.up serviceMapping {}
par BasicNetwork.server2.ipv6.up protocolMapping {}
par BasicNetwork.server2.ipv6.icmpv6 typename "\"inet.networklayer.icmpv6.Icmpv6\""
par BasicNetwork.server2.ipv6.icmpv6 displayStringTextFormat "\"\""
attr mutable ""
par BasicNetwork.server2.ipv6.icmpv6 interfaceTableModule "\"BasicNetwork.server2.interfaceTable\""
par BasicNetwork.server2.ipv6.icmpv6 checksumMode "\"declared\""
attr enum declared,computed
par BasicNetwork.server2.ipv6.lp typename "\"inet.common.MessageDispatcher\""
par BasicNetwork.server2.ipv6.lp displayStringTextFormat "\"processed %p pk (%l)\""
attr mutable ""
par BasicNetwork.server2.ipv6.lp interfaceTableModule "\"BasicNetwork.server2.interfaceTable\""
par BasicNetwork.server2.ipv6.lp forwardServiceRegistration true
par BasicNetwork.server2.ipv6.lp forwardProtocolRegistration true
par BasicNetwork.server2.ipv6.lp interfaceMapping {}
par BasicNetwork.server2.ipv6.lp serviceMapping {}
par BasicNetwork.server2.ipv6.lp protocolMapping {}
par BasicNetwork.server2.ipv6.neighbourDiscovery typename "\"inet.networklayer.icmpv6.Ipv6NeighbourDiscovery\""
par BasicNetwork.server2.ipv6.neighbourDiscovery displayStringTextFormat "\"\""
attr mutable ""
par BasicNetwork.server2.ipv6.neighbourDiscovery interfaceTableModule "\"BasicNetwork.server2.interfaceTable\""
par BasicNetwork.server2.ipv6.neighbourDiscovery checksumMode "\"declared\""
attr enum declared,computed
par BasicNetwork.server2.ipv6.neighbourDiscovery icmpv6Module "\"BasicNetwork.server2.ipv6.icmpv6\""
par BasicNetwork.server2.ipv6.neighbourDiscovery xmipv6Module "\"\""
par BasicNetwork.server2.ipv6.neighbourDiscovery routingTableModule "\"BasicNetwork.server2.ipv6.routingTable\""
par BasicNetwork.server2.ipv6.neighbourDiscovery minIntervalBetweenRAs 0.03s
attr unit s
par BasicNetwork.server2.ipv6.neighbourDiscovery maxIntervalBetweenRAs 0.07s
attr unit s
scalar BasicNetwork.server2.ipv6.neighbourDiscovery startDad:count 1
attr recordingmode count
attr title "DAD started, count"
par BasicNetwork.server2.ipv6.ipv6 typename "\"inet.networklayer.ipv6.Ipv6\""
par BasicNetwork.server2.ipv6.ipv6 displayStringTextFormat "\"\""
attr mutable ""
par BasicNetwork.server2.ipv6.ipv6 interfaceTableModule "\"BasicNetwork.server2.interfaceTable\""
par BasicNetwork.server2.ipv6.ipv6 routingTableModule "\"BasicNetwork.server2.ipv6.routingTable\""
par BasicNetwork.server2.ipv6.ipv6 ipv6NeighbourDiscoveryModule "\"BasicNetwork.server2.ipv6.neighbourDiscovery\""
par BasicNetwork.server2.ipv6.ipv6 icmpv6Module "\"BasicNetwork.server2.ipv6.icmpv6\""
par BasicNetwork.server2.ipv6.ipv6 ipv6TunnelingModule "\"BasicNetwork.server2.ipv6.iptunneling\""
par BasicNetwork.server2.ipv6.ipv6 procDelay 0s
attr unit s
par BasicNetwork.server2.ipv6.iptunneling typename "\"inet.networklayer.ipv6tunneling.Ipv6Tunneling\""
par BasicNetwork.server2.ipv6.iptunneling displayStringTextFormat "\"\""
attr mutable ""
par BasicNetwork.server2.ipv6.iptunneling interfaceTableModule "\"BasicNetwork.server2.interfaceTable\""
par BasicNetwork.server2.ipv6.iptunneling routingTableModule "\"BasicNetwork.server2.ipv6.routingTable\""
par BasicNetwork.server2.ipv6.iptunneling xmipv6Module "\"\""
par BasicNetwork.server2.ipv6 typename "\"inet.networklayer.ipv6.Ipv6NetworkLayer\""
par BasicNetwork.server2.ipv6 xMIPv6Support false
par BasicNetwork.server2.ipv6 forwarding false
par BasicNetwork.server2.ipv6 multicastForwarding false
par BasicNetwork.server2.ipv6 interfaceTableModule "\"BasicNetwork.server2.interfaceTable\""
par BasicNetwork.server2.nl typename "\"inet.common.MessageDispatcher\""
par BasicNetwork.server2.nl displayStringTextFormat "\"processed %p pk (%l)\""
attr mutable ""
par BasicNetwork.server2.nl interfaceTableModule "\"BasicNetwork.server2.interfaceTable\""
par BasicNetwork.server2.nl forwardServiceRegistration true
par BasicNetwork.server2.nl forwardProtocolRegistration true
par BasicNetwork.server2.nl interfaceMapping {}
par BasicNetwork.server2.nl serviceMapping {}
par BasicNetwork.server2.nl protocolMapping {}
par BasicNetwork.server2.udp typename "\"inet.transportlayer.udp.Udp\""
par BasicNetwork.server2.udp displayStringTextFormat "\"\""
attr mutable ""
par BasicNetwork.server2.udp interfaceTableModule "\"BasicNetwork.server2.interfaceTable\""
par BasicNetwork.server2.udp icmpModule "\"^.ipv4.icmp\""
par BasicNetwork.server2.udp icmpv6Module "\"^.ipv6.icmpv6\""
par BasicNetwork.server2.udp checksumMode "\"declared\""
attr enum disabled,declared,computed
par BasicNetwork.server2.udp defaultMulticastLoop true
scalar BasicNetwork.server2.udp packetReceived:count 0
attr interpolationmode none
attr recordingmode count
attr source packetReceived
attr title "packets received, count"
scalar BasicNetwork.server2.udp packetReceived:sum(packetBytes) 0
attr interpolationmode none
attr recordingmode sum(packetBytes)
attr source packetReceived
attr title "packets received, sum(packetBytes)"
scalar BasicNetwork.server2.udp packetSent:count 0
attr interpolationmode none
attr recordingmode count
attr source packetSent
attr title "packets sent, count"
scalar BasicNetwork.server2.udp packetSent:sum(packetBytes) 0
attr interpolationmode none
attr recordingmode sum(packetBytes)
attr source packetSent
attr title "packets sent, sum(packetBytes)"
scalar BasicNetwork.server2.udp passedUpPk:count 0
attr interpolationmode none
attr recordingmode count
attr source packetSentToUpper
attr title "packets passed up, count"
scalar BasicNetwork.server2.udp droppedPkWrongPort:count 0
attr interpolationmode none
attr recordingmode count
attr source packetDropReasonIsNoPortFound(packetDropped)
attr title "packets dropped (wrong port), count"
scalar BasicNetwork.server2.udp droppedPkBadChecksum:count 0
attr interpolationmode none
attr recordingmode count
attr source packetDropReasonIsIncorrectlyReceived(packetDropped)
attr title "packets dropped (checksum error), count"
par BasicNetwork.server2.tcp typename "\"inet.transportlayer.tcp.Tcp\""
par BasicNetwork.server2.tcp displayStringTextFormat "\"\""
attr mutable ""
par BasicNetwork.server2.tcp checksumMode "\"declared\""
attr enum declared,computed
par BasicNetwork.server2.tcp advertisedWindow 7504
par BasicNetwork.server2.tcp delayedAcksEnabled false
par BasicNetwork.server2.tcp nagleEnabled true
par BasicNetwork.server2.tcp limitedTransmitEnabled false
par BasicNetwork.server2.tcp increasedIWEnabled false
par BasicNetwork.server2.tcp sackSupport false
par BasicNetwork.server2.tcp windowScalingSupport false
par BasicNetwork.server2.tcp windowScalingFactor -1
par BasicNetwork.server2.tcp timestampSupport false
par BasicNetwork.server2.tcp mss 536
par BasicNetwork.server2.tcp msl 120s
attr unit s
par BasicNetwork.server2.tcp tcpAlgorithmClass "\"TcpReno\""
attr examples TcpVegas,TcpWestwood,DcTcp,TcpNewReno,TcpReno,TcpTahoe,TcpNoCongestionControl
par BasicNetwork.server2.tcp dupthresh 3
par BasicNetwork.server2.tcp initialSsthresh 4294967295
par BasicNetwork.server2.tcp stopOperationExtraTime 0s
attr unit s
par BasicNetwork.server2.tcp stopOperationTimeout 2s
attr unit s
par BasicNetwork.server2.tcp ecnWillingness false
par BasicNetwork.server2.tcp dctcpGamma 0.0625
par BasicNetwork.server2.tn typename "\"inet.common.MessageDispatcher\""
par BasicNetwork.server2.tn displayStringTextFormat "\"processed %p pk (%l)\""
attr mutable ""
par BasicNetwork.server2.tn interfaceTableModule "\"BasicNetwork.server2.interfaceTable\""
par BasicNetwork.server2.tn forwardServiceRegistration true
par BasicNetwork.server2.tn forwardProtocolRegistration true
par BasicNetwork.server2.tn interfaceMapping {}
par BasicNetwork.server2.tn serviceMapping {}
par BasicNetwork.server2.tn protocolMapping {}
par BasicNetwork.server2.app[0] typename "\"inet.applications.udpapp.UdpSink\""
par BasicNetwork.server2.app[0] displayStringTextFormat "\"\""
attr mutable ""
par BasicNetwork.server2.app[0] interfaceTableModule "\"BasicNetwork.server2.interfaceTable\""
par BasicNetwork.server2.app[0] startTime 0s
attr unit s
par BasicNetwork.server2.app[0] stopTime -1s
attr unit s
par BasicNetwork.server2.app[0] localPort 2000
par BasicNetwork.server2.app[0] receiveBroadcast false
par BasicNetwork.server2.app[0] multicastGroup "\"\""
par BasicNetwork.server2.app[0] multicastSources "\"\""
par BasicNetwork.server2.app[0] stopOperationExtraTime -1s
attr unit s
par BasicNetwork.server2.app[0] stopOperationTimeout 2s
attr unit s
scalar BasicNetwork.server2.app[0] packetReceived:count 0
attr interpolationmode none
attr recordingmode count
attr source packetReceived
attr title "packets received, count"
scalar BasicNetwork.server2.app[0] packetReceived:sum(packetBytes) 0
attr interpolationmode none
attr recordingmode sum(packetBytes)
attr source packetReceived
attr title "packets received, sum(packetBytes)"
statistic BasicNetwork.server2.app[0] endToEndDelay:histogram
field count 0
field mean -nan
field stddev nan
field min nan
field max nan
field sum 0
field sqrsum 0
attr interpolationmode none
attr recordingmode histogram
attr source dataAge(packetReceived)
attr title "end-to-end delay"
attr unit s
bin	-inf	0
bin	0	0
bin	1	0
par BasicNetwork.server2.at typename "\"inet.common.MessageDispatcher\""
par BasicNetwork.server2.at displayStringTextFormat "\"processed %p pk (%l)\""
attr mutable ""
par BasicNetwork.server2.at interfaceTableModule "\"BasicNetwork.server2.interfaceTable\""
par BasicNetwork.server2.at forwardServiceRegistration true
par BasicNetwork.server2.at forwardProtocolRegistration true
par BasicNetwork.server2.at interfaceMapping {}
par BasicNetwork.server2.at serviceMapping {}
par BasicNetwork.server2.at protocolMapping {}
par BasicNetwork.server2 typename "\"inet.node.inet.StandardHost\""
par BasicNetwork.server2 displayStringTextFormat "\"\""
attr mutable ""
par BasicNetwork.server2 hasStatus false
par BasicNetwork.server2 hasEnvironment false
par BasicNetwork.server2 osgModel "\"\""
par BasicNetwork.server2 osgModelColor "\"\""
par BasicNetwork.server2 canvasImage "\"\""
par BasicNetwork.server2 canvasImageColor "\"\""
par BasicNetwork.server2 recordPcap false
par BasicNetwork.server2 numPcapRecorders 0
par BasicNetwork.server2 numLoInterfaces 1
par BasicNetwork.server2 numWlanInterfaces 0
par BasicNetwork.server2 numEthInterfaces 0
par BasicNetwork.server2 numPppInterfaces 0
par BasicNetwork.server2 numTunInterfaces 0
par BasicNetwork.server2 numVirtInterfaces 0
par BasicNetwork.server2 fcsMode "\"declared\""
attr enum declared,computed
par BasicNetwork.server2 hasIpv4 false
par BasicNetwork.server2 hasIpv6 true
par BasicNetwork.server2 hasGn false
par BasicNetwork.server2 forwarding false
par BasicNetwork.server2 multicastForwarding false
par BasicNetwork.server2 hasUdp true
par BasicNetwork.server2 hasTcp true
par BasicNetwork.server2 hasSctp false
par BasicNetwork.server2 hasQuic false
par BasicNetwork.server2 numApps 1
par BasicNetwork typename "\"src.BasicNetwork\""

